@<TRIPOS>MOLECULE
7-16
263 264 16              
SMALL
USER_CHARGES
@<TRIPOS>ATOM
1	   N	1148.899	326.711	-1138.255	N.3	1	GLU1	-0.516	
2	  CA	1149.458	328.060	-1138.255	C.3	1	GLU1	0.040	
3	   C	1150.967	328.020	-1138.255	C.2	1	GLU1	0.537	
4	   O	1151.643	328.719	-1139.024	O.2	1	GLU1	-0.582	
5	  CB	1148.935	328.845	-1137.018	C.3	1	GLU1	0.056	
6	  CG	1149.410	330.330	-1136.907	C.3	1	GLU1	0.014	
7	  CD	1148.986	331.134	-1135.692	C.2	1	GLU1	0.805	
8	 OE1	1148.258	330.632	-1134.814	O.co2	1	GLU1	-0.819	
9	 OE2	1149.416	332.304	-1135.620	O.co2	1	GLU1	-0.819	
10	   H	1149.526	325.832	-1138.255	 H	1	GLU1	0.294	
11	  HA	1149.132	328.578	-1139.175	 H	1	GLU1	0.111	
12	 2HB	1149.224	328.314	-1136.088	 H	1	GLU1	-0.017	
13	 3HB	1147.828	328.835	-1137.005	 H	1	GLU1	-0.017	
14	 2HG	1149.100	330.915	-1137.788	 H	1	GLU1	-0.043	
15	 3HG	1150.510	330.397	-1136.878	 H	1	GLU1	-0.043	
16	   N	1151.572	327.234	-1137.430	N.am	2	ASN2	-0.416	
17	  CA	1153.031	327.195	-1137.430	C.3	2	ASN2	0.014	
18	   C	1153.562	326.840	-1138.799	C.2	2	ASN2	0.597	
19	   O	1154.477	327.470	-1139.327	O.2	2	ASN2	-0.568	
20	  CB	1153.523	326.172	-1136.366	C.3	2	ASN2	-0.204	
21	  CG	1153.060	326.396	-1134.922	C.2	2	ASN2	0.713	
22	 ND2	1153.654	327.311	-1134.204	N.pl3	2	ASN2	-0.919	
23	 OD1	1152.140	325.762	-1134.428	O.2	2	ASN2	-0.593	
24	   H	1151.044	326.654	-1136.793	 H	2	ASN2	0.272	
25	  HA	1153.408	328.205	-1137.185	 H	2	ASN2	0.105	
26	 2HB	1154.628	326.113	-1136.369	 H	2	ASN2	0.080	
27	 3HB	1153.194	325.154	-1136.651	 H	2	ASN2	0.080	
28	1HD2	1153.174	327.484	-1133.318	 H	2	ASN2	0.420	
29	2HD2	1154.356	327.883	-1134.673	 H	2	ASN2	0.420	
30	   N	1153.041	325.845	-1139.433	N.am	3	PRO3	-0.255	
31	  CA	1153.493	325.435	-1140.754	C.3	3	PRO3	-0.027	
32	   C	1153.094	326.459	-1141.831	C.2	3	PRO3	0.590	
33	   O	1153.918	326.842	-1142.663	O.2	3	PRO3	-0.575	
34	  CB	1152.788	324.081	-1140.924	C.3	3	PRO3	-0.007	
35	  CG	1151.505	324.233	-1140.093	C.3	3	PRO3	0.019	
36	  CD	1151.963	325.051	-1138.884	C.3	3	PRO3	0.019	
37	  HA	1154.578	325.315	-1140.768	 H	3	PRO3	0.064	
38	 2HB	1153.411	323.299	-1140.483	 H	3	PRO3	0.025	
39	 3HB	1152.590	323.832	-1141.969	 H	3	PRO3	0.025	
40	 2HG	1151.078	323.270	-1139.802	 H	3	PRO3	0.021	
41	 3HG	1150.768	324.804	-1140.661	 H	3	PRO3	0.021	
42	 2HD	1152.352	324.402	-1138.096	 H	3	PRO3	0.039	
43	 3HD	1151.166	325.687	-1138.490	 H	3	PRO3	0.039	
44	   N	1151.890	326.919	-1141.863	N.am	4	GLU4	-0.516	
45	  CA	1151.530	327.890	-1142.893	C.3	4	GLU4	0.040	
46	   C	1152.429	329.101	-1142.832	C.2	4	GLU4	0.537	
47	   O	1152.955	329.581	-1143.846	O.2	4	GLU4	-0.582	
48	  CB	1150.041	328.308	-1142.722	C.3	4	GLU4	0.056	
49	  CG	1149.493	329.312	-1143.788	C.3	4	GLU4	0.014	
50	  CD	1148.066	329.809	-1143.644	C.2	4	GLU4	0.805	
51	 OE1	1147.340	329.410	-1142.713	O.co2	4	GLU4	-0.819	
52	 OE2	1147.677	330.638	-1144.492	O.co2	4	GLU4	-0.819	
53	   H	1151.206	326.612	-1141.187	 H	4	GLU4	0.294	
54	  HA	1151.661	327.419	-1143.884	 H	4	GLU4	0.111	
55	 2HB	1149.889	328.748	-1141.716	 H	4	GLU4	-0.017	
56	 3HB	1149.394	327.411	-1142.729	 H	4	GLU4	-0.017	
57	 2HG	1149.574	328.897	-1144.806	 H	4	GLU4	-0.043	
58	 3HG	1150.081	330.244	-1143.799	 H	4	GLU4	-0.043	
59	   N	1152.656	329.654	-1141.689	N.am	5	SER5	-0.416	
60	  CA	1153.526	330.825	-1141.630	C.3	5	SER5	-0.025	
61	   C	1154.884	330.520	-1142.216	C.2	5	SER5	0.597	
62	   O	1155.431	331.273	-1143.021	O.2	5	SER5	-0.568	
63	  CB	1153.637	331.357	-1140.180	C.3	5	SER5	0.212	
64	  OG	1154.369	330.478	-1139.319	O.3	5	SER5	-0.655	
65	   H	1152.239	329.282	-1140.847	 H	5	SER5	0.272	
66	  HA	1153.076	331.615	-1142.259	 H	5	SER5	0.084	
67	 2HB	1152.638	331.551	-1139.746	 H	5	SER5	0.035	
68	 3HB	1154.143	332.343	-1140.182	 H	5	SER5	0.035	
69	  HG	1153.880	329.653	-1139.268	 H	5	SER5	0.428	
70	   N	1155.489	329.437	-1141.862	N.am	6	ILE6	-0.416	
71	  CA	1156.802	329.142	-1142.428	C.3	6	ILE6	-0.060	
72	   C	1156.745	329.105	-1143.936	C.2	6	ILE6	0.597	
73	   O	1157.580	329.692	-1144.640	O.2	6	ILE6	-0.568	
74	  CB	1157.402	327.806	-1141.829	C.3	6	ILE6	0.130	
75	 CG1	1157.422	327.743	-1140.268	C.3	6	ILE6	-0.043	
76	 CG2	1158.844	327.504	-1142.344	C.3	6	ILE6	-0.320	
77	 CD1	1157.692	326.354	-1139.653	C.3	6	ILE6	-0.066	
78	   H	1155.061	328.802	-1141.203	 H	6	ILE6	0.272	
79	  HA	1157.476	329.976	-1142.161	 H	6	ILE6	0.087	
80	  HB	1156.744	326.980	-1142.173	 H	6	ILE6	0.019	
81	2HG1	1156.440	328.063	-1139.872	 H	6	ILE6	0.024	
82	3HG1	1158.138	328.485	-1139.863	 H	6	ILE6	0.024	
83	1HG2	1158.902	327.411	-1143.443	 H	6	ILE6	0.088	
84	2HG2	1159.566	328.287	-1142.042	 H	6	ILE6	0.088	
85	3HG2	1159.234	326.542	-1141.966	 H	6	ILE6	0.088	
86	1HD1	1156.964	325.600	-1140.008	 H	6	ILE6	0.019	
87	2HD1	1158.703	325.976	-1139.889	 H	6	ILE6	0.019	
88	3HD1	1157.616	326.384	-1138.550	 H	6	ILE6	0.019	
89	   N	1155.799	328.441	-1144.510	N.am	7	GLN7	-0.416	
90	  CA	1155.743	328.405	-1145.968	C.3	7	GLN7	-0.003	
91	   C	1155.671	329.800	-1146.543	C.2	7	GLN7	0.597	
92	   O	1156.385	330.156	-1147.477	O.2	7	GLN7	-0.568	
93	  CB	1154.519	327.565	-1146.396	C.3	7	GLN7	-0.004	
94	  CG	1154.318	327.373	-1147.935	C.3	7	GLN7	-0.064	
95	  CD	1153.090	326.602	-1148.438	C.2	7	GLN7	0.695	
96	 NE2	1152.237	326.101	-1147.581	N.pl3	7	GLN7	-0.941	
97	 OE1	1152.877	326.465	-1149.632	O.2	7	GLN7	-0.609	
98	   H	1155.107	327.954	-1143.958	 H	7	GLN7	0.272	
99	  HA	1156.670	327.935	-1146.347	 H	7	GLN7	0.085	
100	 2HB	1153.606	328.030	-1145.969	 H	7	GLN7	0.017	
101	 3HB	1154.587	326.566	-1145.922	 H	7	GLN7	0.017	
102	 2HG	1155.212	326.897	-1148.379	 H	7	GLN7	0.035	
103	 3HG	1154.252	328.354	-1148.440	 H	7	GLN7	0.035	
104	1HE2	1151.415	325.661	-1147.998	 H	7	GLN7	0.425	
105	2HE2	1152.436	326.311	-1146.601	 H	7	GLN7	0.425	
106	   N	1154.834	330.642	-1146.038	N.am	8	ASP8	-0.516	
107	  CA	1154.764	331.990	-1146.594	C.3	8	ASP8	0.038	
108	   C	1156.110	332.669	-1146.539	C.2	8	ASP8	0.537	
109	   O	1156.583	333.272	-1147.515	O.2	8	ASP8	-0.582	
110	  CB	1153.686	332.831	-1145.854	C.3	8	ASP8	-0.030	
111	  CG	1153.467	334.250	-1146.398	C.2	8	ASP8	0.799	
112	 OD1	1153.531	334.447	-1147.629	O.co2	8	ASP8	-0.801	
113	 OD2	1153.276	335.178	-1145.584	O.co2	8	ASP8	-0.801	
114	   H	1154.236	330.372	-1145.270	 H	8	ASP8	0.294	
115	  HA	1154.480	331.910	-1147.661	 H	8	ASP8	0.088	
116	 2HB	1153.943	332.916	-1144.783	 H	8	ASP8	-0.012	
117	 3HB	1152.707	332.326	-1145.886	 H	8	ASP8	-0.012	
118	   N	1156.791	332.622	-1145.444	N.am	9	GLU9	-0.516	
119	  CA	1158.093	333.279	-1145.390	C.3	9	GLU9	0.040	
120	   C	1159.011	332.749	-1146.465	C.2	9	GLU9	0.537	
121	   O	1159.675	333.501	-1147.192	O.2	9	GLU9	-0.582	
122	  CB	1158.727	333.074	-1143.984	C.3	9	GLU9	0.056	
123	  CG	1160.110	333.767	-1143.757	C.3	9	GLU9	0.014	
124	  CD	1160.812	333.556	-1142.428	C.2	9	GLU9	0.805	
125	 OE1	1160.291	332.867	-1141.530	O.co2	9	GLU9	-0.819	
126	 OE2	1161.932	334.094	-1142.298	O.co2	9	GLU9	-0.819	
127	   H	1156.427	332.137	-1144.635	 H	9	GLU9	0.294	
128	  HA	1157.952	334.360	-1145.568	 H	9	GLU9	0.111	
129	 2HB	1158.840	331.990	-1143.779	 H	9	GLU9	-0.017	
130	 3HB	1158.031	333.429	-1143.201	 H	9	GLU9	-0.017	
131	 2HG	1160.039	334.857	-1143.899	 H	9	GLU9	-0.043	
132	 3HG	1160.856	333.420	-1144.490	 H	9	GLU9	-0.043	
133	   N	1159.107	331.473	-1146.632	N.am	10	HIS10	-0.416	
134	  CA	1159.995	330.959	-1147.671	C.3	10	HIS10	-0.058	
135	   C	1159.627	331.521	-1149.024	C.2	10	HIS10	0.597	
136	   O	1160.480	331.983	-1149.797	O.2	10	HIS10	-0.568	
137	  CB	1159.830	329.430	-1147.663	C.3	10	HIS10	-0.007	
138	  CG	1161.116	328.721	-1147.353	C.2	10	HIS10	0.187	
139	 CD2	1161.497	328.388	-1146.060	C.2	10	HIS10	-0.221	
140	 ND1	1162.067	328.312	-1148.285	N.2	10	HIS10	-0.543	
141	 CE1	1162.974	327.756	-1147.461	C.2	10	HIS10	0.163	
142	 NE2	1162.712	327.756	-1146.125	N.pl3	10	HIS10	-0.280	
143	   H	1158.576	330.839	-1146.052	 H	10	HIS10	0.272	
144	  HA	1161.014	331.317	-1147.447	 H	10	HIS10	0.136	
145	 2HB	1159.464	329.061	-1148.641	 H	10	HIS10	0.037	
146	 3HB	1159.075	329.095	-1146.922	 H	10	HIS10	0.037	
147	 2HD	1160.912	328.606	-1145.171	 H	10	HIS10	0.186	
148	 1HE	1163.865	327.333	-1147.907	 H	10	HIS10	0.144	
149	 2HE	1163.278	327.381	-1145.352	 H	10	HIS10	0.334	
150	   N	1158.390	331.519	-1149.386	N.am	11	VAL11	-0.416	
151	  CA	1158.034	332.062	-1150.694	C.3	11	VAL11	-0.087	
152	   C	1158.499	333.492	-1150.830	C.2	11	VAL11	0.597	
153	   O	1159.100	333.895	-1151.834	O.2	11	VAL11	-0.568	
154	  CB	1156.473	331.956	-1150.913	C.3	11	VAL11	0.299	
155	 CG1	1155.904	332.657	-1152.177	C.3	11	VAL11	-0.319	
156	 CG2	1155.948	330.501	-1150.983	C.3	11	VAL11	-0.319	
157	   H	1157.677	331.148	-1148.775	 H	11	VAL11	0.272	
158	  HA	1158.554	331.478	-1151.475	 H	11	VAL11	0.097	
159	  HB	1155.986	332.438	-1150.039	 H	11	VAL11	-0.030	
160	1HG1	1156.342	332.262	-1153.114	 H	11	VAL11	0.079	
161	2HG1	1154.805	332.549	-1152.259	 H	11	VAL11	0.079	
162	3HG1	1156.083	333.749	-1152.171	 H	11	VAL11	0.079	
163	1HG2	1156.238	329.916	-1150.091	 H	11	VAL11	0.079	
164	2HG2	1154.842	330.465	-1151.025	 H	11	VAL11	0.079	
165	3HG2	1156.329	329.958	-1151.868	 H	11	VAL11	0.079	
166	   N	1158.262	334.320	-1149.870	N.am	12	GLN12	-0.416	
167	  CA	1158.711	335.703	-1150.000	C.3	12	GLN12	-0.003	
168	   C	1160.201	335.770	-1150.239	C.2	12	GLN12	0.597	
169	   O	1160.688	336.476	-1151.119	O.2	12	GLN12	-0.568	
170	  CB	1158.321	336.474	-1148.719	C.3	12	GLN12	-0.004	
171	  CG	1158.681	337.995	-1148.692	C.3	12	GLN12	-0.064	
172	  CD	1158.379	338.812	-1147.428	C.2	12	GLN12	0.695	
173	 NE2	1157.812	338.238	-1146.398	N.pl3	12	GLN12	-0.941	
174	 OE1	1158.681	339.993	-1147.354	O.2	12	GLN12	-0.609	
175	   H	1157.774	334.016	-1149.040	 H	12	GLN12	0.272	
176	  HA	1158.211	336.157	-1150.876	 H	12	GLN12	0.085	
177	 2HB	1158.797	335.975	-1147.849	 H	12	GLN12	0.017	
178	 3HB	1157.230	336.367	-1148.555	 H	12	GLN12	0.017	
179	 2HG	1158.204	338.514	-1149.543	 H	12	GLN12	0.035	
180	 3HG	1159.765	338.137	-1148.858	 H	12	GLN12	0.035	
181	1HE2	1157.706	338.834	-1145.576	 H	12	GLN12	0.425	
182	2HE2	1157.649	337.234	-1146.499	 H	12	GLN12	0.425	
183	   N	1160.986	335.064	-1149.496	N.am	13	ARG13	-0.348	
184	  CA	1162.426	335.129	-1149.728	C.3	13	ARG13	-0.264	
185	   C	1162.761	334.755	-1151.152	C.2	13	ARG13	0.734	
186	   O	1163.530	335.425	-1151.838	O.2	13	ARG13	-0.589	
187	  CB	1163.139	334.192	-1148.712	C.3	13	ARG13	-0.001	
188	  CG	1164.684	334.346	-1148.632	C.3	13	ARG13	0.039	
189	  CD	1165.312	333.360	-1147.632	C.3	13	ARG13	0.049	
190	  NE	1166.789	333.567	-1147.583	N.pl3	13	ARG13	-0.530	
191	  CZ	1167.637	332.877	-1146.826	C.cat	13	ARG13	0.808	
192	 NH1	1167.272	331.914	-1146.027	N.pl3	13	ARG13	-0.863	
193	 NH2	1168.896	333.176	-1146.884	N.pl3	13	ARG13	-0.863	
194	   H	1160.610	334.476	-1148.767	 H	13	ARG13	0.275	
195	  HA	1162.750	336.176	-1149.572	 H	13	ARG13	0.156	
196	 2HB	1162.873	333.142	-1148.949	 H	13	ARG13	0.033	
197	 3HB	1162.715	334.361	-1147.702	 H	13	ARG13	0.033	
198	 2HG	1164.933	335.391	-1148.355	 H	13	ARG13	0.029	
199	 3HG	1165.135	334.187	-1149.633	 H	13	ARG13	0.029	
200	 2HD	1165.067	332.319	-1147.939	 H	13	ARG13	0.069	
201	 3HD	1164.855	333.508	-1146.630	 H	13	ARG13	0.069	
202	  HE	1167.240	334.288	-1148.155	 H	13	ARG13	0.346	
203	1HH1	1166.267	331.728	-1146.029	 H	13	ARG13	0.448	
204	2HH1	1167.985	331.432	-1145.477	 H	13	ARG13	0.448	
205	1HH2	1169.164	333.932	-1147.517	 H	13	ARG13	0.448	
206	2HH2	1169.532	332.635	-1146.295	 H	13	ARG13	0.448	
207	   N	1162.225	333.699	-1151.664	N.am	14	VAL14	-0.416	
208	  CA	1162.549	333.337	-1153.041	C.3	14	VAL14	-0.087	
209	   C	1162.219	334.465	-1153.989	C.2	14	VAL14	0.597	
210	   O	1163.012	334.844	-1154.859	O.2	14	VAL14	-0.568	
211	  CB	1161.777	332.019	-1153.445	C.3	14	VAL14	0.299	
212	 CG1	1161.865	331.598	-1154.937	C.3	14	VAL14	-0.319	
213	 CG2	1162.209	330.769	-1152.642	C.3	14	VAL14	-0.319	
214	   H	1161.590	333.132	-1151.121	 H	14	VAL14	0.272	
215	  HA	1163.637	333.160	-1153.116	 H	14	VAL14	0.097	
216	  HB	1160.700	332.191	-1153.229	 H	14	VAL14	-0.030	
217	1HG1	1162.906	331.420	-1155.266	 H	14	VAL14	0.079	
218	2HG1	1161.292	330.674	-1155.148	 H	14	VAL14	0.079	
219	3HG1	1161.436	332.359	-1155.617	 H	14	VAL14	0.079	
220	1HG2	1162.122	330.930	-1151.552	 H	14	VAL14	0.079	
221	2HG2	1161.573	329.892	-1152.872	 H	14	VAL14	0.079	
222	3HG2	1163.256	330.478	-1152.847	 H	14	VAL14	0.079	
223	   N	1161.074	335.051	-1153.888	N.am	15	MET15	-0.416	
224	  CA	1160.754	336.142	-1154.804	C.3	15	MET15	-0.024	
225	   C	1161.784	337.242	-1154.719	C.2	15	MET15	0.597	
226	   O	1162.286	337.750	-1155.733	O.2	15	MET15	-0.568	
227	  CB	1159.333	336.688	-1154.496	C.3	15	MET15	0.034	
228	  CG	1158.170	335.690	-1154.685	C.3	15	MET15	0.002	
229	  SD	1156.597	336.556	-1154.572	S.3	15	MET15	-0.274	
230	  CE	1155.515	335.127	-1154.432	C.3	15	MET15	-0.054	
231	   H	1160.410	334.760	-1153.186	 H	15	MET15	0.272	
232	  HA	1160.779	335.752	-1155.839	 H	15	MET15	0.088	
233	 2HB	1159.130	337.566	-1155.140	 H	15	MET15	0.024	
234	 3HB	1159.297	337.083	-1153.461	 H	15	MET15	0.024	
235	 2HG	1158.214	334.906	-1153.906	 H	15	MET15	0.044	
236	 3HG	1158.233	335.173	-1155.660	 H	15	MET15	0.044	
237	 1HE	1155.659	334.437	-1155.283	 H	15	MET15	0.068	
238	 2HE	1155.725	334.577	-1153.498	 H	15	MET15	0.068	
239	 3HE	1154.458	335.443	-1154.416	 H	15	MET15	0.068	
240	   N	1162.153	337.665	-1153.558	N.am	16	ARG16	-0.348	
241	  CA	1163.150	338.729	-1153.477	C.3	16	ARG16	-0.264	
242	   C	1164.420	338.335	-1154.193	C.2	16	ARG16	0.734	
243	   O	1164.534	337.257	-1154.772	O.2	16	ARG16	-0.589	
244	  CB	1163.420	339.051	-1151.979	C.3	16	ARG16	-0.001	
245	  CG	1164.245	340.340	-1151.710	C.3	16	ARG16	0.039	
246	  CD	1164.495	340.563	-1150.209	C.3	16	ARG16	0.049	
247	  NE	1165.272	341.822	-1150.011	N.pl3	16	ARG16	-0.530	
248	  CZ	1165.663	342.307	-1148.837	C.cat	16	ARG16	0.808	
249	 NH1	1165.416	341.725	-1147.697	N.pl3	16	ARG16	-0.863	
250	 NH2	1166.328	343.419	-1148.821	N.pl3	16	ARG16	-0.863	
251	   H	1161.759	337.267	-1152.718	 H	16	ARG16	0.275	
252	  HA	1162.741	339.621	-1153.989	 H	16	ARG16	0.156	
253	 2HB	1163.917	338.176	-1151.512	 H	16	ARG16	0.033	
254	 3HB	1162.451	339.133	-1151.446	 H	16	ARG16	0.033	
255	 2HG	1163.715	341.210	-1152.149	 H	16	ARG16	0.029	
256	 3HG	1165.219	340.286	-1152.239	 H	16	ARG16	0.029	
257	 2HD	1165.044	339.689	-1149.794	 H	16	ARG16	0.069	
258	 3HD	1163.523	340.607	-1149.674	 H	16	ARG16	0.069	
259	  HE	1165.550	342.401	-1150.810	 H	16	ARG16	0.346	
260	1HH1	1164.890	340.852	-1147.779	 H	16	ARG16	0.448	
261	2HH1	1165.751	342.163	-1146.837	 H	16	ARG16	0.448	
262	1HH2	1166.513	343.861	-1149.724	 H	16	ARG16	0.448	
263	2HH2	1166.618	343.777	-1147.909	 H	16	ARG16	0.448	
@<TRIPOS>BOND
1 1 2 1
2 1 10 1
3 2 3 1
4 2 5 1
5 2 11 1
6 3 4 2
7 3 16 1
8 5 6 1
9 6 7 1
10 7 8 2
11 7 9 1
12 5 12 1
13 5 13 1
14 6 14 1
15 6 15 1
16 16 17 1
17 16 24 1
18 17 18 1
19 17 20 1
20 17 25 1
21 18 19 2
22 18 30 1
23 20 21 1
24 21 22 1
25 21 23 2
26 20 26 1
27 20 27 1
28 22 28 1
29 22 29 1
30 30 31 1
31 30 36 1
32 31 32 1
33 31 34 1
34 31 37 1
35 32 33 2
36 32 44 1
37 34 35 1
38 35 36 1
39 34 38 1
40 34 39 1
41 35 40 1
42 35 41 1
43 36 42 1
44 36 43 1
45 44 45 1
46 44 53 1
47 45 46 1
48 45 48 1
49 45 54 1
50 46 47 2
51 46 59 1
52 48 49 1
53 49 50 1
54 50 51 2
55 50 52 1
56 48 55 1
57 48 56 1
58 49 57 1
59 49 58 1
60 59 60 1
61 59 65 1
62 60 61 1
63 60 63 1
64 60 66 1
65 61 62 2
66 61 70 1
67 63 64 1
68 63 67 1
69 63 68 1
70 64 69 1
71 70 71 1
72 70 78 1
73 71 72 1
74 71 74 1
75 71 79 1
76 72 73 2
77 72 89 1
78 74 75 1
79 74 76 1
80 75 77 1
81 74 80 1
82 75 81 1
83 75 82 1
84 76 83 1
85 76 84 1
86 76 85 1
87 77 86 1
88 77 87 1
89 77 88 1
90 89 90 1
91 89 98 1
92 90 91 1
93 90 93 1
94 90 99 1
95 91 92 2
96 91 106 1
97 93 94 1
98 94 95 1
99 95 96 1
100 95 97 2
101 93 100 1
102 93 101 1
103 94 102 1
104 94 103 1
105 96 104 1
106 96 105 1
107 106 107 1
108 106 114 1
109 107 108 1
110 107 110 1
111 107 115 1
112 108 109 2
113 108 118 1
114 110 111 1
115 111 112 2
116 111 113 1
117 110 116 1
118 110 117 1
119 118 119 1
120 118 127 1
121 119 120 1
122 119 122 1
123 119 128 1
124 120 121 2
125 120 133 1
126 122 123 1
127 123 124 1
128 124 125 2
129 124 126 1
130 122 129 1
131 122 130 1
132 123 131 1
133 123 132 1
134 133 134 1
135 133 143 1
136 134 135 1
137 134 137 1
138 134 144 1
139 135 136 2
140 135 150 1
141 137 138 1
142 138 139 2
143 139 142 1
144 138 140 1
145 140 141 2
146 141 142 1
147 137 145 1
148 137 146 1
149 139 147 1
150 141 148 1
151 142 149 1
152 150 151 1
153 150 157 1
154 151 152 1
155 151 154 1
156 151 158 1
157 152 153 2
158 152 166 1
159 154 155 1
160 154 156 1
161 154 159 1
162 155 160 1
163 155 161 1
164 155 162 1
165 156 163 1
166 156 164 1
167 156 165 1
168 166 167 1
169 166 175 1
170 167 168 1
171 167 170 1
172 167 176 1
173 168 169 2
174 168 183 1
175 170 171 1
176 171 172 1
177 172 173 1
178 172 174 2
179 170 177 1
180 170 178 1
181 171 179 1
182 171 180 1
183 173 181 1
184 173 182 1
185 183 184 1
186 183 194 1
187 184 185 1
188 184 187 1
189 184 195 1
190 185 186 2
191 185 207 1
192 187 188 1
193 188 189 1
194 189 190 1
195 190 191 1
196 191 192 2
197 191 193 1
198 187 196 1
199 187 197 1
200 188 198 1
201 188 199 1
202 189 200 1
203 189 201 1
204 190 202 1
205 192 203 1
206 192 204 1
207 193 205 1
208 193 206 1
209 207 208 1
210 207 214 1
211 208 209 1
212 208 211 1
213 208 215 1
214 209 210 2
215 209 223 1
216 211 212 1
217 211 213 1
218 211 216 1
219 212 217 1
220 212 218 1
221 212 219 1
222 213 220 1
223 213 221 1
224 213 222 1
225 223 224 1
226 223 231 1
227 224 225 1
228 224 227 1
229 224 232 1
230 225 226 2
231 225 240 1
232 227 228 1
233 228 229 1
234 229 230 1
235 227 233 1
236 227 234 1
237 228 235 1
238 228 236 1
239 230 237 1
240 230 238 1
241 230 239 1
242 240 241 1
243 240 251 1
244 241 242 1
245 241 244 1
246 241 252 1
247 242 243 2
248 244 245 1
249 245 246 1
250 246 247 1
251 247 248 1
252 248 249 2
253 248 250 1
254 244 253 1
255 244 254 1
256 245 255 1
257 245 256 1
258 246 257 1
259 246 258 1
260 247 259 1
261 249 260 1
262 249 261 1
263 250 262 1
264 250 263 1
@<TRIPOS>SUBSTRUCTURE
1	GLU1	1	RESIDUE	1 ****	GLU
2	ASN2	16	RESIDUE	1 ****	ASN
3	PRO3	30	RESIDUE	1 ****	PRO
4	GLU4	44	RESIDUE	1 ****	GLU
5	SER5	59	RESIDUE	1 ****	SER
6	ILE6	70	RESIDUE	1 ****	ILE
7	GLN7	89	RESIDUE	1 ****	GLN
8	ASP8	106	RESIDUE	1 ****	ASP
9	GLU9	118	RESIDUE	1 ****	GLU
10	HIS10	133	RESIDUE	1 ****	HIS
11	VAL11	150	RESIDUE	1 ****	VAL
12	GLN12	166	RESIDUE	1 ****	GLN
13	ARG13	183	RESIDUE	1 ****	ARG
14	VAL14	207	RESIDUE	1 ****	VAL
15	MET15	223	RESIDUE	1 ****	MET
16	ARG16	240	RESIDUE	1 ****	ARG
