@<TRIPOS>MOLECULE
8-5
270 271 16              
SMALL
USER_CHARGES
@<TRIPOS>ATOM
1	   N	1223.008	351.537	-1217.961	N.3	1	GLU1	-0.516	
2	  CA	1223.567	352.886	-1217.961	C.3	1	GLU1	0.040	
3	   C	1225.076	352.846	-1217.961	C.2	1	GLU1	0.537	
4	   O	1225.752	353.545	-1218.729	O.2	1	GLU1	-0.582	
5	  CB	1223.044	353.671	-1216.724	C.3	1	GLU1	0.056	
6	  CG	1223.519	355.156	-1216.613	C.3	1	GLU1	0.014	
7	  CD	1223.095	355.960	-1215.398	C.2	1	GLU1	0.805	
8	 OE1	1222.367	355.458	-1214.520	O.co2	1	GLU1	-0.819	
9	 OE2	1223.525	357.130	-1215.326	O.co2	1	GLU1	-0.819	
10	   H	1223.635	350.658	-1217.961	 H	1	GLU1	0.294	
11	  HA	1223.241	353.404	-1218.881	 H	1	GLU1	0.111	
12	 2HB	1223.333	353.140	-1215.794	 H	1	GLU1	-0.017	
13	 3HB	1221.937	353.661	-1216.711	 H	1	GLU1	-0.017	
14	 2HG	1223.209	355.741	-1217.494	 H	1	GLU1	-0.043	
15	 3HG	1224.619	355.223	-1216.584	 H	1	GLU1	-0.043	
16	   N	1225.681	352.060	-1217.136	N.am	2	ASN2	-0.416	
17	  CA	1227.140	352.022	-1217.136	C.3	2	ASN2	0.014	
18	   C	1227.671	351.666	-1218.505	C.2	2	ASN2	0.597	
19	   O	1228.586	352.296	-1219.033	O.2	2	ASN2	-0.568	
20	  CB	1227.632	350.999	-1216.071	C.3	2	ASN2	-0.204	
21	  CG	1227.169	351.222	-1214.628	C.2	2	ASN2	0.713	
22	 ND2	1227.763	352.137	-1213.910	N.pl3	2	ASN2	-0.919	
23	 OD1	1226.248	350.589	-1214.134	O.2	2	ASN2	-0.593	
24	   H	1225.152	351.481	-1216.499	 H	2	ASN2	0.272	
25	  HA	1227.517	353.032	-1216.890	 H	2	ASN2	0.105	
26	 2HB	1228.736	350.940	-1216.075	 H	2	ASN2	0.080	
27	 3HB	1227.303	349.980	-1216.357	 H	2	ASN2	0.080	
28	1HD2	1227.282	352.310	-1213.023	 H	2	ASN2	0.420	
29	2HD2	1228.465	352.709	-1214.379	 H	2	ASN2	0.420	
30	   N	1227.150	350.671	-1219.139	N.am	3	PRO3	-0.255	
31	  CA	1227.601	350.262	-1220.460	C.3	3	PRO3	-0.027	
32	   C	1227.203	351.285	-1221.537	C.2	3	PRO3	0.590	
33	   O	1228.026	351.668	-1222.369	O.2	3	PRO3	-0.575	
34	  CB	1226.897	348.907	-1220.629	C.3	3	PRO3	-0.007	
35	  CG	1225.614	349.059	-1219.799	C.3	3	PRO3	0.019	
36	  CD	1226.072	349.878	-1218.589	C.3	3	PRO3	0.019	
37	  HA	1228.687	350.142	-1220.474	 H	3	PRO3	0.064	
38	 2HB	1227.520	348.126	-1220.189	 H	3	PRO3	0.025	
39	 3HB	1226.699	348.658	-1221.675	 H	3	PRO3	0.025	
40	 2HG	1225.186	348.097	-1219.508	 H	3	PRO3	0.021	
41	 3HG	1224.876	349.630	-1220.366	 H	3	PRO3	0.021	
42	 2HD	1226.461	349.228	-1217.802	 H	3	PRO3	0.039	
43	 3HD	1225.275	350.514	-1218.196	 H	3	PRO3	0.039	
44	   N	1225.998	351.745	-1221.569	N.am	4	GLU4	-0.516	
45	  CA	1225.638	352.716	-1222.599	C.3	4	GLU4	0.040	
46	   C	1226.537	353.927	-1222.538	C.2	4	GLU4	0.537	
47	   O	1227.063	354.407	-1223.552	O.2	4	GLU4	-0.582	
48	  CB	1224.150	353.135	-1222.428	C.3	4	GLU4	0.056	
49	  CG	1223.602	354.138	-1223.494	C.3	4	GLU4	0.014	
50	  CD	1222.175	354.635	-1223.350	C.2	4	GLU4	0.805	
51	 OE1	1221.449	354.237	-1222.419	O.co2	4	GLU4	-0.819	
52	 OE2	1221.785	355.464	-1224.198	O.co2	4	GLU4	-0.819	
53	   H	1225.314	351.438	-1220.892	 H	4	GLU4	0.294	
54	  HA	1225.769	352.246	-1223.590	 H	4	GLU4	0.111	
55	 2HB	1223.998	353.575	-1221.421	 H	4	GLU4	-0.017	
56	 3HB	1223.502	352.237	-1222.434	 H	4	GLU4	-0.017	
57	 2HG	1223.683	353.724	-1224.511	 H	4	GLU4	-0.043	
58	 3HG	1224.190	355.071	-1223.505	 H	4	GLU4	-0.043	
59	   N	1226.765	354.480	-1221.395	N.am	5	SER5	-0.416	
60	  CA	1227.634	355.651	-1221.336	C.3	5	SER5	-0.025	
61	   C	1228.993	355.346	-1221.922	C.2	5	SER5	0.597	
62	   O	1229.540	356.100	-1222.727	O.2	5	SER5	-0.568	
63	  CB	1227.746	356.184	-1219.885	C.3	5	SER5	0.212	
64	  OG	1228.478	355.304	-1219.025	O.3	5	SER5	-0.655	
65	   H	1226.348	354.108	-1220.553	 H	5	SER5	0.272	
66	  HA	1227.185	356.442	-1221.965	 H	5	SER5	0.084	
67	 2HB	1226.746	356.377	-1219.452	 H	5	SER5	0.035	
68	 3HB	1228.251	357.169	-1219.888	 H	5	SER5	0.035	
69	  HG	1227.989	354.479	-1218.974	 H	5	SER5	0.428	
70	   N	1229.598	354.263	-1221.568	N.am	6	ILE6	-0.416	
71	  CA	1230.911	353.968	-1222.134	C.3	6	ILE6	-0.060	
72	   C	1230.854	353.931	-1223.642	C.2	6	ILE6	0.597	
73	   O	1231.688	354.519	-1224.346	O.2	6	ILE6	-0.568	
74	  CB	1231.511	352.632	-1221.535	C.3	6	ILE6	0.130	
75	 CG1	1231.530	352.570	-1219.974	C.3	6	ILE6	-0.043	
76	 CG2	1232.952	352.331	-1222.050	C.3	6	ILE6	-0.320	
77	 CD1	1231.800	351.181	-1219.359	C.3	6	ILE6	-0.066	
78	   H	1229.170	353.629	-1220.909	 H	6	ILE6	0.272	
79	  HA	1231.585	354.803	-1221.866	 H	6	ILE6	0.087	
80	  HB	1230.853	351.806	-1221.879	 H	6	ILE6	0.019	
81	2HG1	1230.548	352.889	-1219.578	 H	6	ILE6	0.024	
82	3HG1	1232.246	353.312	-1219.569	 H	6	ILE6	0.024	
83	1HG2	1233.011	352.237	-1223.148	 H	6	ILE6	0.088	
84	2HG2	1233.674	353.113	-1221.748	 H	6	ILE6	0.088	
85	3HG2	1233.342	351.368	-1221.671	 H	6	ILE6	0.088	
86	1HD1	1231.072	350.426	-1219.714	 H	6	ILE6	0.019	
87	2HD1	1232.811	350.802	-1219.595	 H	6	ILE6	0.019	
88	3HD1	1231.724	351.210	-1218.256	 H	6	ILE6	0.019	
89	   N	1229.908	353.267	-1224.216	N.am	7	LEU7	-0.416	
90	  CA	1229.853	353.232	-1225.674	C.3	7	LEU7	-0.052	
91	   C	1229.780	354.627	-1226.246	C.2	7	LEU7	0.597	
92	   O	1230.501	354.990	-1227.188	O.2	7	LEU7	-0.568	
93	  CB	1228.650	352.371	-1226.155	C.3	7	LEU7	-0.110	
94	  CG	1228.577	350.892	-1225.688	C.3	7	LEU7	0.353	
95	 CD1	1227.387	350.186	-1226.354	C.3	7	LEU7	-0.412	
96	 CD2	1229.870	350.113	-1225.980	C.3	7	LEU7	-0.412	
97	   H	1229.216	352.780	-1223.664	 H	7	LEU7	0.272	
98	  HA	1230.794	352.792	-1226.049	 H	7	LEU7	0.092	
99	 2HB	1228.626	352.388	-1227.262	 H	7	LEU7	0.046	
100	 3HB	1227.710	352.874	-1225.850	 H	7	LEU7	0.046	
101	  HG	1228.407	350.884	-1224.591	 H	7	LEU7	-0.036	
102	1HD1	1226.430	350.695	-1226.131	 H	7	LEU7	0.100	
103	2HD1	1227.486	350.146	-1227.455	 H	7	LEU7	0.100	
104	3HD1	1227.280	349.145	-1225.998	 H	7	LEU7	0.100	
105	1HD2	1230.146	350.143	-1227.050	 H	7	LEU7	0.100	
106	2HD2	1230.724	350.524	-1225.409	 H	7	LEU7	0.100	
107	3HD2	1229.789	349.051	-1225.684	 H	7	LEU7	0.100	
108	   N	1228.943	355.468	-1225.740	N.am	8	MET8	-0.416	
109	  CA	1228.872	356.817	-1226.292	C.3	8	MET8	-0.024	
110	   C	1230.218	357.498	-1226.235	C.2	8	MET8	0.597	
111	   O	1230.690	358.103	-1227.210	O.2	8	MET8	-0.568	
112	  CB	1227.800	357.643	-1225.529	C.3	8	MET8	0.034	
113	  CG	1226.350	357.123	-1225.630	C.3	8	MET8	0.002	
114	  SD	1225.216	358.342	-1224.945	S.3	8	MET8	-0.274	
115	  CE	1223.746	357.311	-1224.847	C.3	8	MET8	-0.054	
116	   H	1228.345	355.196	-1224.972	 H	8	MET8	0.272	
117	  HA	1228.589	356.747	-1227.359	 H	8	MET8	0.088	
118	 2HB	1227.810	358.686	-1225.900	 H	8	MET8	0.024	
119	 3HB	1228.077	357.721	-1224.458	 H	8	MET8	0.024	
120	 2HG	1226.248	356.174	-1225.072	 H	8	MET8	0.044	
121	 3HG	1226.067	356.909	-1226.677	 H	8	MET8	0.044	
122	 1HE	1223.498	356.880	-1225.834	 H	8	MET8	0.068	
123	 2HE	1223.904	356.482	-1224.135	 H	8	MET8	0.068	
124	 3HE	1222.881	357.903	-1224.500	 H	8	MET8	0.068	
125	   N	1230.899	357.448	-1225.140	N.am	9	GLU9	-0.516	
126	  CA	1232.201	358.106	-1225.086	C.3	9	GLU9	0.040	
127	   C	1233.119	357.580	-1226.162	C.2	9	GLU9	0.537	
128	   O	1233.782	358.335	-1226.887	O.2	9	GLU9	-0.582	
129	  CB	1232.836	357.899	-1223.681	C.3	9	GLU9	0.056	
130	  CG	1234.218	358.592	-1223.452	C.3	9	GLU9	0.014	
131	  CD	1234.921	358.378	-1222.124	C.2	9	GLU9	0.805	
132	 OE1	1234.400	357.687	-1221.228	O.co2	9	GLU9	-0.819	
133	 OE2	1236.039	358.917	-1221.992	O.co2	9	GLU9	-0.819	
134	   H	1230.536	356.961	-1224.333	 H	9	GLU9	0.294	
135	  HA	1232.058	359.188	-1225.260	 H	9	GLU9	0.111	
136	 2HB	1232.949	356.814	-1223.478	 H	9	GLU9	-0.017	
137	 3HB	1232.139	358.251	-1222.896	 H	9	GLU9	-0.017	
138	 2HG	1234.145	359.682	-1223.591	 H	9	GLU9	-0.043	
139	 3HG	1234.964	358.248	-1224.186	 H	9	GLU9	-0.043	
140	   N	1233.216	356.305	-1226.332	N.am	10	HIS10	-0.416	
141	  CA	1234.104	355.794	-1227.373	C.3	10	HIS10	-0.058	
142	   C	1233.736	356.360	-1228.724	C.2	10	HIS10	0.597	
143	   O	1234.588	356.825	-1229.496	O.2	10	HIS10	-0.568	
144	  CB	1233.941	354.266	-1227.369	C.3	10	HIS10	-0.007	
145	  CG	1235.227	353.556	-1227.062	C.2	10	HIS10	0.187	
146	 CD2	1235.609	353.220	-1225.770	C.2	10	HIS10	-0.221	
147	 ND1	1236.179	353.151	-1227.995	N.2	10	HIS10	-0.543	
148	 CE1	1237.086	352.593	-1227.172	C.2	10	HIS10	0.163	
149	 NE2	1236.824	352.590	-1225.837	N.pl3	10	HIS10	-0.280	
150	   H	1232.686	355.669	-1225.754	 H	10	HIS10	0.272	
151	  HA	1235.123	356.152	-1227.148	 H	10	HIS10	0.136	
152	 2HB	1233.576	353.899	-1228.349	 H	10	HIS10	0.037	
153	 3HB	1233.186	353.927	-1226.629	 H	10	HIS10	0.037	
154	 2HD	1235.024	353.435	-1224.880	 H	10	HIS10	0.186	
155	 1HE	1237.978	352.173	-1227.620	 H	10	HIS10	0.144	
156	 2HE	1237.392	352.212	-1225.064	 H	10	HIS10	0.334	
157	   N	1232.498	356.358	-1229.086	N.am	11	VAL11	-0.416	
158	  CA	1232.142	356.905	-1230.393	C.3	11	VAL11	-0.087	
159	   C	1232.606	358.336	-1230.524	C.2	11	VAL11	0.597	
160	   O	1233.206	358.742	-1231.527	O.2	11	VAL11	-0.568	
161	  CB	1230.581	356.797	-1230.611	C.3	11	VAL11	0.299	
162	 CG1	1230.011	357.501	-1231.874	C.3	11	VAL11	-0.319	
163	 CG2	1230.057	355.343	-1230.685	C.3	11	VAL11	-0.319	
164	   H	1231.786	355.984	-1228.476	 H	11	VAL11	0.272	
165	  HA	1232.662	356.323	-1231.176	 H	11	VAL11	0.097	
166	  HB	1230.094	357.276	-1229.736	 H	11	VAL11	-0.030	
167	1HG1	1230.450	357.110	-1232.811	 H	11	VAL11	0.079	
168	2HG1	1228.913	357.394	-1231.955	 H	11	VAL11	0.079	
169	3HG1	1230.189	358.594	-1231.864	 H	11	VAL11	0.079	
170	1HG2	1230.348	354.755	-1229.795	 H	11	VAL11	0.079	
171	2HG2	1228.952	355.305	-1230.728	 H	11	VAL11	0.079	
172	3HG2	1230.439	354.803	-1231.572	 H	11	VAL11	0.079	
173	   N	1232.369	359.161	-1229.561	N.am	12	GLN12	-0.416	
174	  CA	1232.816	360.544	-1229.688	C.3	12	GLN12	-0.003	
175	   C	1234.306	360.613	-1229.926	C.2	12	GLN12	0.597	
176	   O	1234.792	361.322	-1230.804	O.2	12	GLN12	-0.568	
177	  CB	1232.425	361.310	-1228.404	C.3	12	GLN12	-0.004	
178	  CG	1232.784	362.832	-1228.372	C.3	12	GLN12	-0.064	
179	  CD	1232.482	363.644	-1227.106	C.2	12	GLN12	0.695	
180	 NE2	1231.915	363.067	-1226.078	N.pl3	12	GLN12	-0.941	
181	 OE1	1232.783	364.826	-1227.028	O.2	12	GLN12	-0.609	
182	   H	1231.880	358.854	-1228.732	 H	12	GLN12	0.272	
183	  HA	1232.316	361.001	-1230.562	 H	12	GLN12	0.085	
184	 2HB	1232.902	360.810	-1227.535	 H	12	GLN12	0.017	
185	 3HB	1231.335	361.202	-1228.241	 H	12	GLN12	0.017	
186	 2HG	1232.306	363.353	-1229.222	 H	12	GLN12	0.035	
187	 3HG	1233.867	362.975	-1228.538	 H	12	GLN12	0.035	
188	1HE2	1231.808	363.661	-1225.254	 H	12	GLN12	0.425	
189	2HE2	1231.752	362.063	-1226.182	 H	12	GLN12	0.425	
190	   N	1235.091	359.906	-1229.186	N.am	13	ARG13	-0.348	
191	  CA	1236.531	359.973	-1229.417	C.3	13	ARG13	-0.264	
192	   C	1236.867	359.603	-1230.843	C.2	13	ARG13	0.734	
193	   O	1237.635	360.275	-1231.526	O.2	13	ARG13	-0.589	
194	  CB	1237.246	359.034	-1228.404	C.3	13	ARG13	-0.001	
195	  CG	1238.791	359.188	-1228.323	C.3	13	ARG13	0.039	
196	  CD	1239.418	358.200	-1227.326	C.3	13	ARG13	0.049	
197	  NE	1240.896	358.408	-1227.276	N.pl3	13	ARG13	-0.530	
198	  CZ	1241.744	357.717	-1226.522	C.cat	13	ARG13	0.808	
199	 NH1	1241.380	356.751	-1225.725	N.pl3	13	ARG13	-0.863	
200	 NH2	1243.004	358.017	-1226.579	N.pl3	13	ARG13	-0.863	
201	   H	1234.716	359.315	-1228.458	 H	13	ARG13	0.275	
202	  HA	1236.855	361.019	-1229.258	 H	13	ARG13	0.156	
203	 2HB	1236.980	357.983	-1228.644	 H	13	ARG13	0.033	
204	 3HB	1236.821	359.199	-1227.393	 H	13	ARG13	0.033	
205	 2HG	1239.038	360.232	-1228.043	 H	13	ARG13	0.029	
206	 3HG	1239.241	359.033	-1229.325	 H	13	ARG13	0.029	
207	 2HD	1239.175	357.160	-1227.636	 H	13	ARG13	0.069	
208	 3HD	1238.962	358.344	-1226.324	 H	13	ARG13	0.069	
209	  HE	1241.346	359.131	-1227.847	 H	13	ARG13	0.346	
210	1HH1	1240.375	356.564	-1225.728	 H	13	ARG13	0.448	
211	2HH1	1242.094	356.268	-1225.177	 H	13	ARG13	0.448	
212	1HH2	1243.270	358.775	-1227.209	 H	13	ARG13	0.448	
213	2HH2	1243.639	357.475	-1225.991	 H	13	ARG13	0.448	
214	   N	1236.332	358.548	-1231.357	N.am	14	VAL14	-0.416	
215	  CA	1236.656	358.190	-1232.735	C.3	14	VAL14	-0.087	
216	   C	1236.325	359.320	-1233.680	C.2	14	VAL14	0.597	
217	   O	1237.118	359.703	-1234.550	O.2	14	VAL14	-0.568	
218	  CB	1235.885	356.872	-1233.143	C.3	14	VAL14	0.299	
219	 CG1	1235.973	356.455	-1234.636	C.3	14	VAL14	-0.319	
220	 CG2	1236.318	355.620	-1232.343	C.3	14	VAL14	-0.319	
221	   H	1235.697	357.979	-1230.816	 H	14	VAL14	0.272	
222	  HA	1237.745	358.014	-1232.811	 H	14	VAL14	0.097	
223	  HB	1234.808	357.043	-1232.926	 H	14	VAL14	-0.030	
224	1HG1	1237.015	356.279	-1234.966	 H	14	VAL14	0.079	
225	2HG1	1235.401	355.532	-1234.849	 H	14	VAL14	0.079	
226	3HG1	1235.543	357.217	-1235.314	 H	14	VAL14	0.079	
227	1HG2	1236.231	355.778	-1231.252	 H	14	VAL14	0.079	
228	2HG2	1235.682	354.743	-1232.576	 H	14	VAL14	0.079	
229	3HG2	1237.365	355.331	-1232.549	 H	14	VAL14	0.079	
230	   N	1235.180	359.905	-1233.578	N.am	15	MET15	-0.416	
231	  CA	1234.859	360.998	-1234.491	C.3	15	MET15	-0.024	
232	   C	1235.888	362.099	-1234.403	C.2	15	MET15	0.597	
233	   O	1236.391	362.610	-1235.415	O.2	15	MET15	-0.568	
234	  CB	1233.437	361.543	-1234.181	C.3	15	MET15	0.034	
235	  CG	1232.276	360.544	-1234.373	C.3	15	MET15	0.002	
236	  SD	1230.701	361.409	-1234.258	S.3	15	MET15	-0.274	
237	  CE	1229.621	359.978	-1234.122	C.3	15	MET15	-0.054	
238	   H	1234.515	359.611	-1232.876	 H	15	MET15	0.272	
239	  HA	1234.884	360.612	-1235.527	 H	15	MET15	0.088	
240	 2HB	1233.234	362.422	-1234.823	 H	15	MET15	0.024	
241	 3HB	1233.401	361.935	-1233.145	 H	15	MET15	0.024	
242	 2HG	1232.319	359.758	-1233.596	 H	15	MET15	0.044	
243	 3HG	1232.339	360.029	-1235.350	 H	15	MET15	0.044	
244	 1HE	1229.765	359.291	-1234.975	 H	15	MET15	0.068	
245	 2HE	1229.831	359.425	-1233.190	 H	15	MET15	0.068	
246	 3HE	1228.563	360.293	-1234.105	 H	15	MET15	0.068	
247	   N	1236.257	362.519	-1233.240	N.am	16	ARG16	-0.348	
248	  CA	1237.253	363.584	-1233.156	C.3	16	ARG16	-0.264	
249	   C	1238.523	363.192	-1233.872	C.2	16	ARG16	0.734	
250	   O	1238.638	362.116	-1234.455	O.2	16	ARG16	-0.589	
251	  CB	1237.522	363.901	-1231.657	C.3	16	ARG16	-0.001	
252	  CG	1238.346	365.190	-1231.384	C.3	16	ARG16	0.039	
253	  CD	1238.596	365.409	-1229.883	C.3	16	ARG16	0.049	
254	  NE	1239.371	366.668	-1229.681	N.pl3	16	ARG16	-0.530	
255	  CZ	1239.762	367.150	-1228.505	C.cat	16	ARG16	0.808	
256	 NH1	1239.515	366.565	-1227.367	N.pl3	16	ARG16	-0.863	
257	 NH2	1240.426	368.263	-1228.486	N.pl3	16	ARG16	-0.863	
258	   H	1235.862	362.119	-1232.401	 H	16	ARG16	0.275	
259	  HA	1236.843	364.477	-1233.665	 H	16	ARG16	0.156	
260	 2HB	1238.019	363.025	-1231.192	 H	16	ARG16	0.033	
261	 3HB	1236.553	363.981	-1231.124	 H	16	ARG16	0.033	
262	 2HG	1237.815	366.061	-1231.821	 H	16	ARG16	0.029	
263	 3HG	1239.320	365.138	-1231.913	 H	16	ARG16	0.029	
264	 2HD	1239.145	364.534	-1229.470	 H	16	ARG16	0.069	
265	 3HD	1237.623	365.451	-1229.347	 H	16	ARG16	0.069	
266	  HE	1239.649	367.250	-1230.478	 H	16	ARG16	0.346	
267	1HH1	1238.990	365.692	-1227.452	 H	16	ARG16	0.448	
268	2HH1	1239.849	367.000	-1226.505	 H	16	ARG16	0.448	
269	1HH2	1240.611	368.707	-1229.388	 H	16	ARG16	0.448	
270	2HH2	1240.716	368.618	-1227.573	 H	16	ARG16	0.448	
@<TRIPOS>BOND
1 1 2 1
2 1 10 1
3 2 3 1
4 2 5 1
5 2 11 1
6 3 4 2
7 3 16 1
8 5 6 1
9 6 7 1
10 7 8 2
11 7 9 1
12 5 12 1
13 5 13 1
14 6 14 1
15 6 15 1
16 16 17 1
17 16 24 1
18 17 18 1
19 17 20 1
20 17 25 1
21 18 19 2
22 18 30 1
23 20 21 1
24 21 22 1
25 21 23 2
26 20 26 1
27 20 27 1
28 22 28 1
29 22 29 1
30 30 31 1
31 30 36 1
32 31 32 1
33 31 34 1
34 31 37 1
35 32 33 2
36 32 44 1
37 34 35 1
38 35 36 1
39 34 38 1
40 34 39 1
41 35 40 1
42 35 41 1
43 36 42 1
44 36 43 1
45 44 45 1
46 44 53 1
47 45 46 1
48 45 48 1
49 45 54 1
50 46 47 2
51 46 59 1
52 48 49 1
53 49 50 1
54 50 51 2
55 50 52 1
56 48 55 1
57 48 56 1
58 49 57 1
59 49 58 1
60 59 60 1
61 59 65 1
62 60 61 1
63 60 63 1
64 60 66 1
65 61 62 2
66 61 70 1
67 63 64 1
68 63 67 1
69 63 68 1
70 64 69 1
71 70 71 1
72 70 78 1
73 71 72 1
74 71 74 1
75 71 79 1
76 72 73 2
77 72 89 1
78 74 75 1
79 74 76 1
80 75 77 1
81 74 80 1
82 75 81 1
83 75 82 1
84 76 83 1
85 76 84 1
86 76 85 1
87 77 86 1
88 77 87 1
89 77 88 1
90 89 90 1
91 89 97 1
92 90 91 1
93 90 93 1
94 90 98 1
95 91 92 2
96 91 108 1
97 93 94 1
98 94 95 1
99 94 96 1
100 93 99 1
101 93 100 1
102 94 101 1
103 95 102 1
104 95 103 1
105 95 104 1
106 96 105 1
107 96 106 1
108 96 107 1
109 108 109 1
110 108 116 1
111 109 110 1
112 109 112 1
113 109 117 1
114 110 111 2
115 110 125 1
116 112 113 1
117 113 114 1
118 114 115 1
119 112 118 1
120 112 119 1
121 113 120 1
122 113 121 1
123 115 122 1
124 115 123 1
125 115 124 1
126 125 126 1
127 125 134 1
128 126 127 1
129 126 129 1
130 126 135 1
131 127 128 2
132 127 140 1
133 129 130 1
134 130 131 1
135 131 132 2
136 131 133 1
137 129 136 1
138 129 137 1
139 130 138 1
140 130 139 1
141 140 141 1
142 140 150 1
143 141 142 1
144 141 144 1
145 141 151 1
146 142 143 2
147 142 157 1
148 144 145 1
149 145 146 2
150 146 149 1
151 145 147 1
152 147 148 2
153 148 149 1
154 144 152 1
155 144 153 1
156 146 154 1
157 148 155 1
158 149 156 1
159 157 158 1
160 157 164 1
161 158 159 1
162 158 161 1
163 158 165 1
164 159 160 2
165 159 173 1
166 161 162 1
167 161 163 1
168 161 166 1
169 162 167 1
170 162 168 1
171 162 169 1
172 163 170 1
173 163 171 1
174 163 172 1
175 173 174 1
176 173 182 1
177 174 175 1
178 174 177 1
179 174 183 1
180 175 176 2
181 175 190 1
182 177 178 1
183 178 179 1
184 179 180 1
185 179 181 2
186 177 184 1
187 177 185 1
188 178 186 1
189 178 187 1
190 180 188 1
191 180 189 1
192 190 191 1
193 190 201 1
194 191 192 1
195 191 194 1
196 191 202 1
197 192 193 2
198 192 214 1
199 194 195 1
200 195 196 1
201 196 197 1
202 197 198 1
203 198 199 2
204 198 200 1
205 194 203 1
206 194 204 1
207 195 205 1
208 195 206 1
209 196 207 1
210 196 208 1
211 197 209 1
212 199 210 1
213 199 211 1
214 200 212 1
215 200 213 1
216 214 215 1
217 214 221 1
218 215 216 1
219 215 218 1
220 215 222 1
221 216 217 2
222 216 230 1
223 218 219 1
224 218 220 1
225 218 223 1
226 219 224 1
227 219 225 1
228 219 226 1
229 220 227 1
230 220 228 1
231 220 229 1
232 230 231 1
233 230 238 1
234 231 232 1
235 231 234 1
236 231 239 1
237 232 233 2
238 232 247 1
239 234 235 1
240 235 236 1
241 236 237 1
242 234 240 1
243 234 241 1
244 235 242 1
245 235 243 1
246 237 244 1
247 237 245 1
248 237 246 1
249 247 248 1
250 247 258 1
251 248 249 1
252 248 251 1
253 248 259 1
254 249 250 2
255 251 252 1
256 252 253 1
257 253 254 1
258 254 255 1
259 255 256 2
260 255 257 1
261 251 260 1
262 251 261 1
263 252 262 1
264 252 263 1
265 253 264 1
266 253 265 1
267 254 266 1
268 256 267 1
269 256 268 1
270 257 269 1
271 257 270 1
@<TRIPOS>SUBSTRUCTURE
1	GLU1	1	RESIDUE	1 ****	GLU
2	ASN2	16	RESIDUE	1 ****	ASN
3	PRO3	30	RESIDUE	1 ****	PRO
4	GLU4	44	RESIDUE	1 ****	GLU
5	SER5	59	RESIDUE	1 ****	SER
6	ILE6	70	RESIDUE	1 ****	ILE
7	LEU7	89	RESIDUE	1 ****	LEU
8	MET8	108	RESIDUE	1 ****	MET
9	GLU9	125	RESIDUE	1 ****	GLU
10	HIS10	140	RESIDUE	1 ****	HIS
11	VAL11	157	RESIDUE	1 ****	VAL
12	GLN12	173	RESIDUE	1 ****	GLN
13	ARG13	190	RESIDUE	1 ****	ARG
14	VAL14	214	RESIDUE	1 ****	VAL
15	MET15	230	RESIDUE	1 ****	MET
16	ARG16	247	RESIDUE	1 ****	ARG
