@<TRIPOS>MOLECULE
3-17
263 263 16              
SMALL
USER_CHARGES
@<TRIPOS>ATOM
1	   N	494.203	114.432	-443.152	N.3	1	GLU1	-0.516	
2	  CA	494.762	115.781	-443.152	C.3	1	GLU1	0.040	
3	   C	496.271	115.741	-443.152	C.2	1	GLU1	0.537	
4	   O	496.947	116.440	-443.921	O.2	1	GLU1	-0.582	
5	  CB	494.239	116.566	-441.915	C.3	1	GLU1	0.056	
6	  CG	494.714	118.051	-441.805	C.3	1	GLU1	0.014	
7	  CD	494.290	118.855	-440.590	C.2	1	GLU1	0.805	
8	 OE1	493.562	118.353	-439.712	O.co2	1	GLU1	-0.819	
9	 OE2	494.720	120.025	-440.518	O.co2	1	GLU1	-0.819	
10	   H	494.830	113.553	-443.152	 H	1	GLU1	0.294	
11	  HA	494.436	116.299	-444.073	 H	1	GLU1	0.111	
12	 2HB	494.528	116.035	-440.986	 H	1	GLU1	-0.017	
13	 3HB	493.132	116.556	-441.902	 H	1	GLU1	-0.017	
14	 2HG	494.404	118.636	-442.686	 H	1	GLU1	-0.043	
15	 3HG	495.814	118.118	-441.776	 H	1	GLU1	-0.043	
16	   N	496.876	114.955	-442.327	N.am	2	ASN2	-0.416	
17	  CA	498.335	114.917	-442.327	C.3	2	ASN2	0.014	
18	   C	498.866	114.561	-443.696	C.2	2	ASN2	0.597	
19	   O	499.781	115.192	-444.225	O.2	2	ASN2	-0.568	
20	  CB	498.827	113.894	-441.263	C.3	2	ASN2	-0.204	
21	  CG	498.364	114.117	-439.820	C.2	2	ASN2	0.713	
22	 ND2	498.959	115.032	-439.102	N.pl3	2	ASN2	-0.919	
23	 OD1	497.444	113.483	-439.326	O.2	2	ASN2	-0.593	
24	   H	496.348	114.375	-441.691	 H	2	ASN2	0.272	
25	  HA	498.712	115.926	-442.082	 H	2	ASN2	0.105	
26	 2HB	499.932	113.835	-441.267	 H	2	ASN2	0.080	
27	 3HB	498.498	112.875	-441.549	 H	2	ASN2	0.080	
28	1HD2	498.478	115.205	-438.215	 H	2	ASN2	0.420	
29	2HD2	499.660	115.604	-439.571	 H	2	ASN2	0.420	
30	   N	498.345	113.566	-444.330	N.am	3	ASP3	-0.516	
31	  CA	498.858	113.222	-445.653	C.3	3	ASP3	0.038	
32	   C	498.764	114.400	-446.593	C.2	3	ASP3	0.537	
33	   O	499.715	114.743	-447.314	O.2	3	ASP3	-0.582	
34	  CB	498.104	111.990	-446.228	C.3	3	ASP3	-0.030	
35	  CG	498.604	111.487	-447.590	C.2	3	ASP3	0.799	
36	 OD1	499.827	111.515	-447.837	O.co2	3	ASP3	-0.801	
37	 OD2	497.764	111.103	-448.430	O.co2	3	ASP3	-0.801	
38	   H	497.593	113.033	-443.918	 H	3	ASP3	0.294	
39	  HA	499.930	112.967	-445.553	 H	3	ASP3	0.088	
40	 2HB	497.027	112.219	-446.329	 H	3	ASP3	-0.012	
41	 3HB	498.164	111.137	-445.534	 H	3	ASP3	-0.012	
42	   N	497.663	115.069	-446.649	N.am	4	GLU4	-0.516	
43	  CA	497.573	116.208	-447.559	C.3	4	GLU4	0.040	
44	   C	498.653	117.221	-447.266	C.2	4	GLU4	0.537	
45	   O	499.347	117.719	-448.163	O.2	4	GLU4	-0.582	
46	  CB	496.167	116.863	-447.441	C.3	4	GLU4	0.056	
47	  CG	495.900	118.072	-448.395	C.3	4	GLU4	0.014	
48	  CD	494.571	118.796	-448.289	C.2	4	GLU4	0.805	
49	 OE1	493.702	118.423	-447.477	O.co2	4	GLU4	-0.819	
50	 OE2	494.410	119.780	-449.041	O.co2	4	GLU4	-0.819	
51	   H	496.876	114.809	-446.073	 H	4	GLU4	0.294	
52	  HA	497.717	115.847	-448.593	 H	4	GLU4	0.111	
53	 2HB	495.995	117.196	-446.397	 H	4	GLU4	-0.017	
54	 3HB	495.381	116.104	-447.618	 H	4	GLU4	-0.017	
55	 2HG	496.008	117.778	-449.452	 H	4	GLU4	-0.043	
56	 3HG	496.636	118.878	-448.235	 H	4	GLU4	-0.043	
57	   N	498.860	117.579	-446.044	N.am	5	SER5	-0.416	
58	  CA	499.905	118.559	-445.761	C.3	5	SER5	-0.025	
59	   C	501.242	118.088	-446.283	C.2	5	SER5	0.597	
60	   O	501.983	118.824	-446.934	O.2	5	SER5	-0.568	
61	  CB	499.965	118.880	-444.247	C.3	5	SER5	0.212	
62	  OG	500.452	117.784	-443.464	O.3	5	SER5	-0.655	
63	   H	498.307	117.188	-445.294	 H	5	SER5	0.272	
64	  HA	499.657	119.488	-446.306	 H	5	SER5	0.084	
65	 2HB	498.975	119.195	-443.865	 H	5	SER5	0.035	
66	 3HB	500.627	119.751	-444.077	 H	5	SER5	0.035	
67	  HG	499.829	117.060	-443.564	 H	5	SER5	0.428	
68	   N	501.619	116.879	-446.039	N.am	6	ILE6	-0.416	
69	  CA	502.912	116.425	-446.543	C.3	6	ILE6	-0.060	
70	   C	502.994	116.584	-448.042	C.2	6	ILE6	0.597	
71	   O	503.979	117.094	-448.595	O.2	6	ILE6	-0.568	
72	  CB	503.218	114.939	-446.091	C.3	6	ILE6	0.130	
73	 CG1	503.077	114.683	-444.556	C.3	6	ILE6	-0.043	
74	 CG2	504.630	114.449	-446.537	C.3	6	ILE6	-0.320	
75	 CD1	503.049	113.203	-444.121	C.3	6	ILE6	-0.066	
76	   H	501.029	116.256	-445.506	 H	6	ILE6	0.272	
77	  HA	503.688	117.085	-446.114	 H	6	ILE6	0.087	
78	  HB	502.466	114.294	-446.592	 H	6	ILE6	0.019	
79	2HG1	502.129	115.123	-444.193	 H	6	ILE6	0.024	
80	3HG1	503.865	115.229	-444.002	 H	6	ILE6	0.024	
81	1HG2	504.777	114.482	-447.630	 H	6	ILE6	0.088	
82	2HG2	505.442	115.046	-446.078	 H	6	ILE6	0.088	
83	3HG2	504.814	113.393	-446.267	 H	6	ILE6	0.088	
84	1HD1	502.241	112.641	-444.628	 H	6	ILE6	0.019	
85	2HD1	503.999	112.681	-444.332	 H	6	ILE6	0.019	
86	3HD1	502.873	113.110	-443.033	 H	6	ILE6	0.019	
87	   N	502.009	116.177	-448.769	N.am	7	LEU7	-0.416	
88	  CA	502.089	116.331	-450.218	C.3	7	LEU7	-0.052	
89	   C	502.308	117.776	-450.597	C.2	7	LEU7	0.597	
90	   O	503.166	118.117	-451.424	O.2	7	LEU7	-0.568	
91	  CB	500.810	115.767	-450.899	C.3	7	LEU7	-0.110	
92	  CG	500.444	114.278	-450.648	C.3	7	LEU7	0.353	
93	 CD1	499.222	113.885	-451.489	C.3	7	LEU7	-0.412	
94	 CD2	501.610	113.322	-450.949	C.3	7	LEU7	-0.412	
95	   H	501.195	115.758	-448.342	 H	7	LEU7	0.272	
96	  HA	502.975	115.779	-450.580	 H	7	LEU7	0.092	
97	 2HB	500.896	115.923	-451.992	 H	7	LEU7	0.046	
98	 3HB	499.943	116.389	-450.598	 H	7	LEU7	0.046	
99	  HG	500.171	114.166	-449.577	 H	7	LEU7	-0.036	
100	1HD1	498.347	114.527	-451.269	 H	7	LEU7	0.100	
101	2HD1	499.418	113.964	-452.575	 H	7	LEU7	0.100	
102	3HD1	498.908	112.844	-451.289	 H	7	LEU7	0.100	
103	1HD2	501.988	113.433	-451.982	 H	7	LEU7	0.100	
104	2HD2	502.462	113.500	-450.266	 H	7	LEU7	0.100	
105	3HD2	501.323	112.263	-450.809	 H	7	LEU7	0.100	
106	   N	501.580	118.685	-450.041	N.am	8	ASP8	-0.516	
107	  CA	501.791	120.083	-450.407	C.3	8	ASP8	0.038	
108	   C	503.221	120.497	-450.158	C.2	8	ASP8	0.537	
109	   O	503.880	121.123	-451.003	O.2	8	ASP8	-0.582	
110	  CB	500.804	121.004	-449.637	C.3	8	ASP8	-0.030	
111	  CG	500.880	122.496	-449.991	C.2	8	ASP8	0.799	
112	 OD1	501.094	122.831	-451.174	O.co2	8	ASP8	-0.801	
113	 OD2	500.769	123.334	-449.071	O.co2	8	ASP8	-0.801	
114	   H	500.874	118.433	-449.364	 H	8	ASP8	0.294	
115	  HA	501.602	120.189	-451.492	 H	8	ASP8	0.088	
116	 2HB	500.967	120.907	-448.548	 H	8	ASP8	-0.012	
117	 3HB	499.761	120.691	-449.810	 H	8	ASP8	-0.012	
118	   N	503.775	120.192	-449.034	N.am	9	GLU9	-0.516	
119	  CA	505.158	120.593	-448.794	C.3	9	GLU9	0.040	
120	   C	506.073	120.045	-449.862	C.2	9	GLU9	0.537	
121	   O	506.921	120.752	-450.426	O.2	9	GLU9	-0.582	
122	  CB	505.610	120.103	-447.388	C.3	9	GLU9	0.056	
123	  CG	507.061	120.502	-446.965	C.3	9	GLU9	0.014	
124	  CD	507.586	120.005	-445.631	C.2	9	GLU9	0.805	
125	 OE1	506.872	119.313	-444.879	O.co2	9	GLU9	-0.819	
126	 OE2	508.762	120.312	-445.346	O.co2	9	GLU9	-0.819	
127	   H	503.259	119.683	-448.330	 H	9	GLU9	0.294	
128	  HA	505.218	121.696	-448.828	 H	9	GLU9	0.111	
129	 2HB	505.518	118.999	-447.329	 H	9	GLU9	-0.017	
130	 3HB	504.910	120.477	-446.615	 H	9	GLU9	-0.017	
131	 2HG	507.187	121.597	-446.958	 H	9	GLU9	-0.043	
132	 3HG	507.806	120.122	-447.683	 H	9	GLU9	-0.043	
133	   N	505.969	118.804	-450.199	N.am	10	HIS10	-0.416	
134	  CA	506.854	118.274	-451.232	C.3	10	HIS10	-0.058	
135	   C	506.719	119.057	-452.516	C.2	10	HIS10	0.597	
136	   O	507.707	119.453	-453.152	O.2	10	HIS10	-0.568	
137	  CB	506.435	116.810	-451.450	C.3	10	HIS10	-0.007	
138	  CG	507.547	115.849	-451.150	C.2	10	HIS10	0.187	
139	 CD2	507.741	115.294	-449.892	C.2	10	HIS10	-0.221	
140	 ND1	508.502	115.396	-452.058	N.2	10	HIS10	-0.543	
141	 CE1	509.219	114.587	-451.256	C.2	10	HIS10	0.163	
142	 NE2	508.832	114.467	-449.957	N.pl3	10	HIS10	-0.280	
143	   H	505.286	118.208	-449.754	 H	10	HIS10	0.272	
144	  HA	507.892	118.412	-450.886	 H	10	HIS10	0.136	
145	 2HB	506.109	116.639	-452.495	 H	10	HIS10	0.037	
146	 3HB	505.566	116.526	-450.821	 H	10	HIS10	0.037	
147	 2HD	507.117	115.499	-449.027	 H	10	HIS10	0.186	
148	 1HE	510.065	114.072	-451.691	 H	10	HIS10	0.144	
149	 2HE	509.251	113.902	-449.204	 H	10	HIS10	0.334	
150	   N	505.539	119.323	-452.964	N.am	11	VAL11	-0.416	
151	  CA	505.408	120.081	-454.206	C.3	11	VAL11	-0.087	
152	   C	506.117	121.410	-454.105	C.2	11	VAL11	0.597	
153	   O	506.871	121.821	-454.996	O.2	11	VAL11	-0.568	
154	  CB	503.879	120.284	-454.551	C.3	11	VAL11	0.299	
155	 CG1	503.561	121.229	-455.742	C.3	11	VAL11	-0.319	
156	 CG2	503.127	118.968	-454.862	C.3	11	VAL11	-0.319	
157	   H	504.718	119.012	-452.465	 H	11	VAL11	0.272	
158	  HA	505.894	119.516	-455.021	 H	11	VAL11	0.097	
159	  HB	503.398	120.732	-453.655	 H	11	VAL11	-0.030	
160	1HG1	504.015	120.883	-456.690	 H	11	VAL11	0.079	
161	2HG1	502.473	121.331	-455.918	 H	11	VAL11	0.079	
162	3HG1	503.918	122.262	-455.569	 H	11	VAL11	0.079	
163	1HG2	503.227	118.233	-454.042	 H	11	VAL11	0.079	
164	2HG2	502.040	119.136	-454.990	 H	11	VAL11	0.079	
165	3HG2	503.495	118.481	-455.785	 H	11	VAL11	0.079	
166	   N	505.931	122.140	-453.058	N.am	12	GLN12	-0.416	
167	  CA	506.616	123.425	-452.960	C.3	12	GLN12	-0.003	
168	   C	508.112	123.253	-453.077	C.2	12	GLN12	0.597	
169	   O	508.793	123.965	-453.811	O.2	12	GLN12	-0.568	
170	  CB	506.239	124.086	-451.615	C.3	12	GLN12	-0.004	
171	  CG	506.845	125.503	-451.348	C.3	12	GLN12	-0.064	
172	  CD	506.564	126.195	-450.009	C.2	12	GLN12	0.695	
173	 NE2	505.812	125.608	-449.113	N.pl3	12	GLN12	-0.941	
174	 OE1	507.052	127.284	-449.747	O.2	12	GLN12	-0.609	
175	   H	505.320	121.827	-452.317	 H	12	GLN12	0.272	
176	  HA	506.287	124.068	-453.797	 H	12	GLN12	0.085	
177	 2HB	506.538	123.405	-450.791	 H	12	GLN12	0.017	
178	 3HB	505.135	124.157	-451.548	 H	12	GLN12	0.017	
179	 2HG	506.546	126.202	-452.151	 H	12	GLN12	0.035	
180	 3HG	507.948	125.468	-451.413	 H	12	GLN12	0.035	
181	1HE2	505.728	126.106	-448.226	 H	12	GLN12	0.425	
182	2HE2	505.493	124.670	-449.366	 H	12	GLN12	0.425	
183	   N	508.691	122.331	-452.386	N.am	13	ARG13	-0.348	
184	  CA	510.138	122.165	-452.499	C.3	13	ARG13	-0.264	
185	   C	510.542	121.917	-453.934	C.2	13	ARG13	0.734	
186	   O	511.474	122.519	-454.461	O.2	13	ARG13	-0.589	
187	  CB	510.582	120.995	-451.576	C.3	13	ARG13	-0.001	
188	  CG	512.116	120.857	-451.362	C.3	13	ARG13	0.039	
189	  CD	512.469	119.658	-450.467	C.3	13	ARG13	0.049	
190	  NE	513.948	119.589	-450.281	N.pl3	13	ARG13	-0.530	
191	  CZ	514.591	118.668	-449.569	C.cat	13	ARG13	0.808	
192	 NH1	513.994	117.694	-448.941	N.pl3	13	ARG13	-0.863	
193	 NH2	515.883	118.741	-449.492	N.pl3	13	ARG13	-0.863	
194	   H	508.153	121.733	-451.775	 H	13	ARG13	0.275	
195	  HA	510.617	123.108	-452.175	 H	13	ARG13	0.156	
196	 2HB	510.167	120.047	-451.976	 H	13	ARG13	0.033	
197	 3HB	510.096	121.110	-450.585	 H	13	ARG13	0.033	
198	 2HG	512.508	121.798	-450.923	 H	13	ARG13	0.029	
199	 3HG	512.628	120.747	-452.340	 H	13	ARG13	0.029	
200	 2HD	512.084	118.725	-450.934	 H	13	ARG13	0.069	
201	 3HD	511.949	119.758	-449.490	 H	13	ARG13	0.069	
202	  HE	514.567	120.283	-450.712	 H	13	ARG13	0.346	
203	1HH1	512.977	117.693	-449.043	 H	13	ARG13	0.448	
204	2HH1	514.560	117.027	-448.414	 H	13	ARG13	0.448	
205	1HH2	516.333	119.510	-449.991	 H	13	ARG13	0.448	
206	2HH2	516.358	118.026	-448.939	 H	13	ARG13	0.448	
207	   N	509.888	121.048	-454.627	N.am	14	VAL14	-0.416	
208	  CA	510.278	120.809	-456.013	C.3	14	VAL14	-0.087	
209	   C	510.235	122.087	-456.815	C.2	14	VAL14	0.597	
210	   O	511.161	122.424	-457.563	O.2	14	VAL14	-0.568	
211	  CB	509.337	119.712	-456.653	C.3	14	VAL14	0.299	
212	 CG1	509.498	119.472	-458.180	C.3	14	VAL14	-0.319	
213	 CG2	509.474	118.314	-456.004	C.3	14	VAL14	-0.319	
214	   H	509.117	120.540	-454.216	 H	14	VAL14	0.272	
215	  HA	511.323	120.450	-456.032	 H	14	VAL14	0.097	
216	  HB	508.290	120.046	-456.495	 H	14	VAL14	-0.030	
217	1HG1	510.521	119.153	-458.453	 H	14	VAL14	0.079	
218	2HG1	508.801	118.700	-458.559	 H	14	VAL14	0.079	
219	3HG1	509.270	120.376	-458.776	 H	14	VAL14	0.079	
220	1HG2	509.310	118.350	-454.912	 H	14	VAL14	0.079	
221	2HG2	508.725	117.601	-456.401	 H	14	VAL14	0.079	
222	3HG2	510.472	117.868	-456.171	 H	14	VAL14	0.079	
223	   N	509.201	122.852	-456.717	N.am	15	MET15	-0.416	
224	  CA	509.158	124.089	-457.492	C.3	15	MET15	-0.024	
225	   C	510.346	124.966	-457.178	C.2	15	MET15	0.597	
226	   O	511.022	125.500	-458.071	O.2	15	MET15	-0.568	
227	  CB	507.826	124.838	-457.215	C.3	15	MET15	0.034	
228	  CG	506.536	124.097	-457.627	C.3	15	MET15	0.002	
229	  SD	505.127	125.210	-457.509	S.3	15	MET15	-0.274	
230	  CE	503.812	123.992	-457.650	C.3	15	MET15	-0.054	
231	   H	508.432	122.599	-456.113	 H	15	MET15	0.272	
232	  HA	509.217	123.834	-458.566	 H	15	MET15	0.088	
233	 2HB	507.837	125.812	-457.742	 H	15	MET15	0.024	
234	 3HB	507.758	125.100	-456.140	 H	15	MET15	0.024	
235	 2HG	506.371	123.226	-456.964	 H	15	MET15	0.044	
236	 3HG	506.605	123.703	-458.658	 H	15	MET15	0.044	
237	 1HE	503.919	123.400	-458.577	 H	15	MET15	0.068	
238	 2HE	503.835	123.300	-456.790	 H	15	MET15	0.068	
239	 3HE	502.826	124.488	-457.667	 H	15	MET15	0.068	
240	   N	510.667	125.168	-455.945	N.am	16	ARG16	-0.348	
241	  CA	511.815	126.017	-455.643	C.3	16	ARG16	-0.264	
242	   C	513.064	125.494	-456.312	C.2	16	ARG16	0.734	
243	   O	513.051	124.494	-457.027	O.2	16	ARG16	-0.589	
244	  CB	511.989	126.094	-454.099	C.3	16	ARG16	-0.001	
245	  CG	512.990	127.170	-453.592	C.3	16	ARG16	0.039	
246	  CD	513.127	127.155	-452.060	C.3	16	ARG16	0.049	
247	  NE	514.082	128.219	-451.631	N.pl3	16	ARG16	-0.530	
248	  CZ	514.434	128.475	-450.375	C.cat	16	ARG16	0.808	
249	 NH1	513.983	127.809	-449.349	N.pl3	16	ARG16	-0.863	
250	 NH2	515.271	129.439	-450.155	N.pl3	16	ARG16	-0.863	
251	   H	510.132	124.745	-455.200	 H	16	ARG16	0.275	
252	  HA	511.613	127.025	-456.053	 H	16	ARG16	0.156	
253	 2HB	512.284	125.093	-453.724	 H	16	ARG16	0.033	
254	 3HB	511.001	126.281	-453.632	 H	16	ARG16	0.033	
255	 2HG	512.658	128.170	-453.942	 H	16	ARG16	0.029	
256	 3HG	513.987	127.009	-454.051	 H	16	ARG16	0.029	
257	 2HD	513.479	126.152	-451.733	 H	16	ARG16	0.069	
258	 3HD	512.129	127.305	-451.597	 H	16	ARG16	0.069	
259	  HE	514.529	128.835	-452.318	 H	16	ARG16	0.346	
260	1HH1	513.329	127.061	-449.592	 H	16	ARG16	0.448	
261	2HH1	514.302	128.068	-448.414	 H	16	ARG16	0.448	
262	1HH2	515.614	129.950	-450.971	 H	16	ARG16	0.448	
263	2HH2	515.528	129.621	-449.183	 H	16	ARG16	0.448	
@<TRIPOS>BOND
1 1 2 1
2 1 10 1
3 2 3 1
4 2 5 1
5 2 11 1
6 3 4 2
7 3 16 1
8 5 6 1
9 6 7 1
10 7 8 2
11 7 9 1
12 5 12 1
13 5 13 1
14 6 14 1
15 6 15 1
16 16 17 1
17 16 24 1
18 17 18 1
19 17 20 1
20 17 25 1
21 18 19 2
22 18 30 1
23 20 21 1
24 21 22 1
25 21 23 2
26 20 26 1
27 20 27 1
28 22 28 1
29 22 29 1
30 30 31 1
31 30 38 1
32 31 32 1
33 31 34 1
34 31 39 1
35 32 33 2
36 32 42 1
37 34 35 1
38 35 36 2
39 35 37 1
40 34 40 1
41 34 41 1
42 42 43 1
43 42 51 1
44 43 44 1
45 43 46 1
46 43 52 1
47 44 45 2
48 44 57 1
49 46 47 1
50 47 48 1
51 48 49 2
52 48 50 1
53 46 53 1
54 46 54 1
55 47 55 1
56 47 56 1
57 57 58 1
58 57 63 1
59 58 59 1
60 58 61 1
61 58 64 1
62 59 60 2
63 59 68 1
64 61 62 1
65 61 65 1
66 61 66 1
67 62 67 1
68 68 69 1
69 68 76 1
70 69 70 1
71 69 72 1
72 69 77 1
73 70 71 2
74 70 87 1
75 72 73 1
76 72 74 1
77 73 75 1
78 72 78 1
79 73 79 1
80 73 80 1
81 74 81 1
82 74 82 1
83 74 83 1
84 75 84 1
85 75 85 1
86 75 86 1
87 87 88 1
88 87 95 1
89 88 89 1
90 88 91 1
91 88 96 1
92 89 90 2
93 89 106 1
94 91 92 1
95 92 93 1
96 92 94 1
97 91 97 1
98 91 98 1
99 92 99 1
100 93 100 1
101 93 101 1
102 93 102 1
103 94 103 1
104 94 104 1
105 94 105 1
106 106 107 1
107 106 114 1
108 107 108 1
109 107 110 1
110 107 115 1
111 108 109 2
112 108 118 1
113 110 111 1
114 111 112 2
115 111 113 1
116 110 116 1
117 110 117 1
118 118 119 1
119 118 127 1
120 119 120 1
121 119 122 1
122 119 128 1
123 120 121 2
124 120 133 1
125 122 123 1
126 123 124 1
127 124 125 2
128 124 126 1
129 122 129 1
130 122 130 1
131 123 131 1
132 123 132 1
133 133 134 1
134 133 143 1
135 134 135 1
136 134 137 1
137 134 144 1
138 135 136 2
139 135 150 1
140 137 138 1
141 138 139 2
142 139 142 1
143 138 140 1
144 140 141 2
145 141 142 1
146 137 145 1
147 137 146 1
148 139 147 1
149 141 148 1
150 142 149 1
151 150 151 1
152 150 157 1
153 151 152 1
154 151 154 1
155 151 158 1
156 152 153 2
157 152 166 1
158 154 155 1
159 154 156 1
160 154 159 1
161 155 160 1
162 155 161 1
163 155 162 1
164 156 163 1
165 156 164 1
166 156 165 1
167 166 167 1
168 166 175 1
169 167 168 1
170 167 170 1
171 167 176 1
172 168 169 2
173 168 183 1
174 170 171 1
175 171 172 1
176 172 173 1
177 172 174 2
178 170 177 1
179 170 178 1
180 171 179 1
181 171 180 1
182 173 181 1
183 173 182 1
184 183 184 1
185 183 194 1
186 184 185 1
187 184 187 1
188 184 195 1
189 185 186 2
190 185 207 1
191 187 188 1
192 188 189 1
193 189 190 1
194 190 191 1
195 191 192 2
196 191 193 1
197 187 196 1
198 187 197 1
199 188 198 1
200 188 199 1
201 189 200 1
202 189 201 1
203 190 202 1
204 192 203 1
205 192 204 1
206 193 205 1
207 193 206 1
208 207 208 1
209 207 214 1
210 208 209 1
211 208 211 1
212 208 215 1
213 209 210 2
214 209 223 1
215 211 212 1
216 211 213 1
217 211 216 1
218 212 217 1
219 212 218 1
220 212 219 1
221 213 220 1
222 213 221 1
223 213 222 1
224 223 224 1
225 223 231 1
226 224 225 1
227 224 227 1
228 224 232 1
229 225 226 2
230 225 240 1
231 227 228 1
232 228 229 1
233 229 230 1
234 227 233 1
235 227 234 1
236 228 235 1
237 228 236 1
238 230 237 1
239 230 238 1
240 230 239 1
241 240 241 1
242 240 251 1
243 241 242 1
244 241 244 1
245 241 252 1
246 242 243 2
247 244 245 1
248 245 246 1
249 246 247 1
250 247 248 1
251 248 249 2
252 248 250 1
253 244 253 1
254 244 254 1
255 245 255 1
256 245 256 1
257 246 257 1
258 246 258 1
259 247 259 1
260 249 260 1
261 249 261 1
262 250 262 1
263 250 263 1
@<TRIPOS>SUBSTRUCTURE
1	GLU1	1	RESIDUE	1 ****	GLU
2	ASN2	16	RESIDUE	1 ****	ASN
3	ASP3	30	RESIDUE	1 ****	ASP
4	GLU4	42	RESIDUE	1 ****	GLU
5	SER5	57	RESIDUE	1 ****	SER
6	ILE6	68	RESIDUE	1 ****	ILE
7	LEU7	87	RESIDUE	1 ****	LEU
8	ASP8	106	RESIDUE	1 ****	ASP
9	GLU9	118	RESIDUE	1 ****	GLU
10	HIS10	133	RESIDUE	1 ****	HIS
11	VAL11	150	RESIDUE	1 ****	VAL
12	GLN12	166	RESIDUE	1 ****	GLN
13	ARG13	183	RESIDUE	1 ****	ARG
14	VAL14	207	RESIDUE	1 ****	VAL
15	MET15	223	RESIDUE	1 ****	MET
16	ARG16	240	RESIDUE	1 ****	ARG
