@<TRIPOS>MOLECULE
8-13
264 265 16              
SMALL
USER_CHARGES
@<TRIPOS>ATOM
1	   N	1287.576	372.926	-1289.147	N.3	1	GLU1	-0.516	
2	  CA	1288.135	374.275	-1289.147	C.3	1	GLU1	0.040	
3	   C	1289.644	374.235	-1289.147	C.2	1	GLU1	0.537	
4	   O	1290.320	374.934	-1289.916	O.2	1	GLU1	-0.582	
5	  CB	1287.612	375.060	-1287.910	C.3	1	GLU1	0.056	
6	  CG	1288.087	376.545	-1287.799	C.3	1	GLU1	0.014	
7	  CD	1287.663	377.349	-1286.584	C.2	1	GLU1	0.805	
8	 OE1	1286.935	376.847	-1285.706	O.co2	1	GLU1	-0.819	
9	 OE2	1288.093	378.519	-1286.512	O.co2	1	GLU1	-0.819	
10	   H	1288.203	372.047	-1289.147	 H	1	GLU1	0.294	
11	  HA	1287.809	374.793	-1290.067	 H	1	GLU1	0.111	
12	 2HB	1287.901	374.529	-1286.980	 H	1	GLU1	-0.017	
13	 3HB	1286.505	375.050	-1287.897	 H	1	GLU1	-0.017	
14	 2HG	1287.777	377.130	-1288.680	 H	1	GLU1	-0.043	
15	 3HG	1289.187	376.612	-1287.770	 H	1	GLU1	-0.043	
16	   N	1290.248	373.449	-1288.322	N.am	2	ASN2	-0.416	
17	  CA	1291.708	373.410	-1288.322	C.3	2	ASN2	0.014	
18	   C	1292.239	373.055	-1289.691	C.2	2	ASN2	0.597	
19	   O	1293.153	373.685	-1290.219	O.2	2	ASN2	-0.568	
20	  CB	1292.200	372.387	-1287.258	C.3	2	ASN2	-0.204	
21	  CG	1291.737	372.611	-1285.814	C.2	2	ASN2	0.713	
22	 ND2	1292.331	373.526	-1285.096	N.pl3	2	ASN2	-0.919	
23	 OD1	1290.816	371.977	-1285.320	O.2	2	ASN2	-0.593	
24	   H	1289.720	372.869	-1287.685	 H	2	ASN2	0.272	
25	  HA	1292.085	374.420	-1288.077	 H	2	ASN2	0.105	
26	 2HB	1293.304	372.328	-1287.261	 H	2	ASN2	0.080	
27	 3HB	1291.871	371.369	-1287.543	 H	2	ASN2	0.080	
28	1HD2	1291.850	373.699	-1284.210	 H	2	ASN2	0.420	
29	2HD2	1293.032	374.098	-1285.565	 H	2	ASN2	0.420	
30	   N	1291.717	372.060	-1290.325	N.am	3	PRO3	-0.255	
31	  CA	1292.169	371.650	-1291.646	C.3	3	PRO3	-0.027	
32	   C	1291.771	372.674	-1292.723	C.2	3	PRO3	0.590	
33	   O	1292.594	373.057	-1293.555	O.2	3	PRO3	-0.575	
34	  CB	1291.465	370.296	-1291.816	C.3	3	PRO3	-0.007	
35	  CG	1290.182	370.448	-1290.985	C.3	3	PRO3	0.019	
36	  CD	1290.639	371.266	-1289.776	C.3	3	PRO3	0.019	
37	  HA	1293.255	371.531	-1291.660	 H	3	PRO3	0.064	
38	 2HB	1292.088	369.514	-1291.375	 H	3	PRO3	0.025	
39	 3HB	1291.267	370.047	-1292.861	 H	3	PRO3	0.025	
40	 2HG	1289.754	369.485	-1290.694	 H	3	PRO3	0.021	
41	 3HG	1289.444	371.019	-1291.553	 H	3	PRO3	0.021	
42	 2HD	1291.029	370.617	-1288.988	 H	3	PRO3	0.039	
43	 3HD	1289.843	371.902	-1289.382	 H	3	PRO3	0.039	
44	   N	1290.566	373.134	-1292.755	N.am	4	GLU4	-0.516	
45	  CA	1290.206	374.105	-1293.785	C.3	4	GLU4	0.040	
46	   C	1291.105	375.316	-1293.724	C.2	4	GLU4	0.537	
47	   O	1291.631	375.796	-1294.738	O.2	4	GLU4	-0.582	
48	  CB	1288.718	374.523	-1293.614	C.3	4	GLU4	0.056	
49	  CG	1288.169	375.527	-1294.680	C.3	4	GLU4	0.014	
50	  CD	1286.743	376.024	-1294.536	C.2	4	GLU4	0.805	
51	 OE1	1286.017	375.625	-1293.605	O.co2	4	GLU4	-0.819	
52	 OE2	1286.353	376.853	-1295.384	O.co2	4	GLU4	-0.819	
53	   H	1289.882	372.827	-1292.079	 H	4	GLU4	0.294	
54	  HA	1290.337	373.634	-1294.776	 H	4	GLU4	0.111	
55	 2HB	1288.565	374.963	-1292.608	 H	4	GLU4	-0.017	
56	 3HB	1288.070	373.626	-1293.620	 H	4	GLU4	-0.017	
57	 2HG	1288.251	375.112	-1295.698	 H	4	GLU4	-0.043	
58	 3HG	1288.757	376.460	-1294.691	 H	4	GLU4	-0.043	
59	   N	1291.333	375.869	-1292.581	N.am	5	SER5	-0.416	
60	  CA	1292.202	377.040	-1292.522	C.3	5	SER5	-0.025	
61	   C	1293.561	376.735	-1293.108	C.2	5	SER5	0.597	
62	   O	1294.108	377.488	-1293.913	O.2	5	SER5	-0.568	
63	  CB	1292.314	377.572	-1291.072	C.3	5	SER5	0.212	
64	  OG	1293.046	376.693	-1290.211	O.3	5	SER5	-0.655	
65	   H	1290.916	375.497	-1291.739	 H	5	SER5	0.272	
66	  HA	1291.752	377.830	-1293.151	 H	5	SER5	0.084	
67	 2HB	1291.314	377.766	-1290.638	 H	5	SER5	0.035	
68	 3HB	1292.819	378.558	-1291.074	 H	5	SER5	0.035	
69	  HG	1292.557	375.868	-1290.160	 H	5	SER5	0.428	
70	   N	1294.166	375.652	-1292.754	N.am	6	ILE6	-0.416	
71	  CA	1295.479	375.357	-1293.320	C.3	6	ILE6	-0.060	
72	   C	1295.421	375.320	-1294.828	C.2	6	ILE6	0.597	
73	   O	1296.256	375.908	-1295.532	O.2	6	ILE6	-0.568	
74	  CB	1296.078	374.021	-1292.721	C.3	6	ILE6	0.130	
75	 CG1	1296.098	373.958	-1291.160	C.3	6	ILE6	-0.043	
76	 CG2	1297.520	373.719	-1293.236	C.3	6	ILE6	-0.320	
77	 CD1	1296.368	372.569	-1290.545	C.3	6	ILE6	-0.066	
78	   H	1293.737	375.017	-1292.095	 H	6	ILE6	0.272	
79	  HA	1296.153	376.191	-1293.053	 H	6	ILE6	0.087	
80	  HB	1295.421	373.195	-1293.065	 H	6	ILE6	0.019	
81	2HG1	1295.116	374.278	-1290.764	 H	6	ILE6	0.024	
82	3HG1	1296.814	374.700	-1290.755	 H	6	ILE6	0.024	
83	1HG2	1297.579	373.626	-1294.334	 H	6	ILE6	0.088	
84	2HG2	1298.242	374.502	-1292.934	 H	6	ILE6	0.088	
85	3HG2	1297.910	372.757	-1292.858	 H	6	ILE6	0.088	
86	1HD1	1295.640	371.815	-1290.900	 H	6	ILE6	0.019	
87	2HD1	1297.379	372.191	-1290.781	 H	6	ILE6	0.019	
88	3HD1	1296.292	372.599	-1289.442	 H	6	ILE6	0.019	
89	   N	1294.475	374.656	-1295.402	N.am	7	LEU7	-0.416	
90	  CA	1294.420	374.620	-1296.860	C.3	7	LEU7	-0.052	
91	   C	1294.348	376.016	-1297.433	C.2	7	LEU7	0.597	
92	   O	1295.068	376.379	-1298.375	O.2	7	LEU7	-0.568	
93	  CB	1293.217	373.760	-1297.341	C.3	7	LEU7	-0.110	
94	  CG	1293.145	372.281	-1296.875	C.3	7	LEU7	0.353	
95	 CD1	1291.955	371.575	-1297.540	C.3	7	LEU7	-0.412	
96	 CD2	1294.438	371.502	-1297.166	C.3	7	LEU7	-0.412	
97	   H	1293.784	374.169	-1294.850	 H	7	LEU7	0.272	
98	  HA	1295.362	374.180	-1297.235	 H	7	LEU7	0.092	
99	 2HB	1293.194	373.776	-1298.448	 H	7	LEU7	0.046	
100	 3HB	1292.278	374.263	-1297.036	 H	7	LEU7	0.046	
101	  HG	1292.975	372.272	-1295.777	 H	7	LEU7	-0.036	
102	1HD1	1290.998	372.084	-1297.317	 H	7	LEU7	0.100	
103	2HD1	1292.054	371.535	-1298.641	 H	7	LEU7	0.100	
104	3HD1	1291.848	370.534	-1297.184	 H	7	LEU7	0.100	
105	1HD2	1294.713	371.532	-1298.236	 H	7	LEU7	0.100	
106	2HD2	1295.292	371.913	-1296.595	 H	7	LEU7	0.100	
107	3HD2	1294.357	370.439	-1296.870	 H	7	LEU7	0.100	
108	   N	1293.511	376.856	-1296.926	N.am	8	SER8	-0.416	
109	  CA	1293.441	378.205	-1297.480	C.3	8	SER8	-0.025	
110	   C	1294.789	378.884	-1297.422	C.2	8	SER8	0.597	
111	   O	1295.259	379.484	-1298.389	O.2	8	SER8	-0.568	
112	  CB	1292.352	379.041	-1296.761	C.3	8	SER8	0.212	
113	  OG	1292.696	379.359	-1295.409	O.3	8	SER8	-0.655	
114	   H	1292.913	376.585	-1296.158	 H	8	SER8	0.272	
115	  HA	1293.170	378.122	-1298.548	 H	8	SER8	0.084	
116	 2HB	1291.373	378.524	-1296.782	 H	8	SER8	0.035	
117	 3HB	1292.185	379.988	-1297.311	 H	8	SER8	0.035	
118	  HG	1292.764	378.531	-1294.927	 H	8	SER8	0.428	
119	   N	1295.469	378.833	-1296.326	N.am	9	GLU9	-0.516	
120	  CA	1296.772	379.489	-1296.271	C.3	9	GLU9	0.040	
121	   C	1297.690	378.961	-1297.346	C.2	9	GLU9	0.537	
122	   O	1298.355	379.714	-1298.072	O.2	9	GLU9	-0.582	
123	  CB	1297.406	379.281	-1294.865	C.3	9	GLU9	0.056	
124	  CG	1298.789	379.972	-1294.636	C.3	9	GLU9	0.014	
125	  CD	1299.490	379.758	-1293.307	C.2	9	GLU9	0.805	
126	 OE1	1298.968	379.067	-1292.411	O.co2	9	GLU9	-0.819	
127	 OE2	1300.610	380.294	-1293.175	O.co2	9	GLU9	-0.819	
128	   H	1295.105	378.347	-1295.519	 H	9	GLU9	0.294	
129	  HA	1296.632	380.571	-1296.446	 H	9	GLU9	0.111	
130	 2HB	1297.517	378.196	-1294.662	 H	9	GLU9	-0.017	
131	 3HB	1296.709	379.635	-1294.081	 H	9	GLU9	-0.017	
132	 2HG	1298.718	381.062	-1294.775	 H	9	GLU9	-0.043	
133	 3HG	1299.535	379.626	-1295.369	 H	9	GLU9	-0.043	
134	   N	1297.785	377.685	-1297.516	N.am	10	HIS10	-0.416	
135	  CA	1298.672	377.173	-1298.556	C.3	10	HIS10	-0.058	
136	   C	1298.306	377.738	-1299.907	C.2	10	HIS10	0.597	
137	   O	1299.159	378.202	-1300.679	O.2	10	HIS10	-0.568	
138	  CB	1298.506	375.644	-1298.551	C.3	10	HIS10	-0.007	
139	  CG	1299.791	374.932	-1298.243	C.2	10	HIS10	0.187	
140	 CD2	1300.171	374.596	-1296.950	C.2	10	HIS10	-0.221	
141	 ND1	1300.742	374.525	-1299.176	N.2	10	HIS10	-0.543	
142	 CE1	1301.648	373.966	-1298.352	C.2	10	HIS10	0.163	
143	 NE2	1301.385	373.963	-1297.017	N.pl3	10	HIS10	-0.280	
144	   H	1297.253	377.051	-1296.938	 H	10	HIS10	0.272	
145	  HA	1299.692	377.529	-1298.331	 H	10	HIS10	0.136	
146	 2HB	1298.141	375.278	-1299.531	 H	10	HIS10	0.037	
147	 3HB	1297.750	375.308	-1297.811	 H	10	HIS10	0.037	
148	 2HD	1299.586	374.812	-1296.061	 H	10	HIS10	0.186	
149	 1HE	1302.539	373.544	-1298.799	 H	10	HIS10	0.144	
150	 2HE	1301.952	373.585	-1296.244	 H	10	HIS10	0.334	
151	   N	1297.068	377.739	-1300.271	N.am	11	VAL11	-0.416	
152	  CA	1296.714	378.285	-1301.577	C.3	11	VAL11	-0.087	
153	   C	1297.180	379.715	-1301.710	C.2	11	VAL11	0.597	
154	   O	1297.782	380.120	-1302.712	O.2	11	VAL11	-0.568	
155	  CB	1295.153	378.180	-1301.797	C.3	11	VAL11	0.299	
156	 CG1	1294.585	378.885	-1303.060	C.3	11	VAL11	-0.319	
157	 CG2	1294.626	376.727	-1301.870	C.3	11	VAL11	-0.319	
158	   H	1296.355	377.367	-1299.660	 H	11	VAL11	0.272	
159	  HA	1297.233	377.702	-1302.360	 H	11	VAL11	0.097	
160	  HB	1294.666	378.661	-1300.922	 H	11	VAL11	-0.030	
161	1HG1	1295.023	378.493	-1303.997	 H	11	VAL11	0.079	
162	2HG1	1293.486	378.779	-1303.142	 H	11	VAL11	0.079	
163	3HG1	1294.764	379.977	-1303.050	 H	11	VAL11	0.079	
164	1HG2	1294.915	376.139	-1300.979	 H	11	VAL11	0.079	
165	2HG2	1293.520	376.691	-1301.913	 H	11	VAL11	0.079	
166	3HG2	1295.007	376.186	-1302.757	 H	11	VAL11	0.079	
167	   N	1296.944	380.541	-1300.747	N.am	12	GLN12	-0.416	
168	  CA	1297.394	381.924	-1300.874	C.3	12	GLN12	-0.003	
169	   C	1298.884	381.989	-1301.112	C.2	12	GLN12	0.597	
170	   O	1299.372	382.697	-1301.990	O.2	12	GLN12	-0.568	
171	  CB	1297.004	382.691	-1299.591	C.3	12	GLN12	-0.004	
172	  CG	1297.366	384.213	-1299.560	C.3	12	GLN12	-0.064	
173	  CD	1297.064	385.026	-1298.295	C.2	12	GLN12	0.695	
174	 NE2	1296.496	384.450	-1297.266	N.pl3	12	GLN12	-0.941	
175	 OE1	1297.367	386.207	-1298.217	O.2	12	GLN12	-0.609	
176	   H	1296.454	380.236	-1299.918	 H	12	GLN12	0.272	
177	  HA	1296.895	382.381	-1301.749	 H	12	GLN12	0.085	
178	 2HB	1297.479	382.190	-1298.722	 H	12	GLN12	0.017	
179	 3HB	1295.913	382.585	-1299.428	 H	12	GLN12	0.017	
180	 2HG	1296.889	384.734	-1300.411	 H	12	GLN12	0.035	
181	 3HG	1298.449	384.354	-1299.725	 H	12	GLN12	0.035	
182	1HE2	1296.389	385.045	-1296.443	 H	12	GLN12	0.425	
183	2HE2	1296.331	383.447	-1297.370	 H	12	GLN12	0.425	
184	   N	1299.667	381.282	-1300.370	N.am	13	ARG13	-0.348	
185	  CA	1301.108	381.346	-1300.601	C.3	13	ARG13	-0.264	
186	   C	1301.444	380.974	-1302.026	C.2	13	ARG13	0.734	
187	   O	1302.214	381.645	-1302.710	O.2	13	ARG13	-0.589	
188	  CB	1301.819	380.406	-1299.587	C.3	13	ARG13	-0.001	
189	  CG	1303.365	380.557	-1299.505	C.3	13	ARG13	0.039	
190	  CD	1303.990	379.568	-1298.507	C.3	13	ARG13	0.049	
191	  NE	1305.468	379.774	-1298.456	N.pl3	13	ARG13	-0.530	
192	  CZ	1306.314	379.081	-1297.700	C.cat	13	ARG13	0.808	
193	 NH1	1305.948	378.117	-1296.903	N.pl3	13	ARG13	-0.863	
194	 NH2	1307.574	379.378	-1297.757	N.pl3	13	ARG13	-0.863	
195	   H	1299.290	380.692	-1299.642	 H	13	ARG13	0.275	
196	  HA	1301.433	382.391	-1300.442	 H	13	ARG13	0.156	
197	 2HB	1301.552	379.355	-1299.826	 H	13	ARG13	0.033	
198	 3HB	1301.394	380.573	-1298.576	 H	13	ARG13	0.033	
199	 2HG	1303.614	381.601	-1299.225	 H	13	ARG13	0.029	
200	 3HG	1303.816	380.400	-1300.506	 H	13	ARG13	0.029	
201	 2HD	1303.744	378.529	-1298.816	 H	13	ARG13	0.069	
202	 3HD	1303.533	379.714	-1297.505	 H	13	ARG13	0.069	
203	  HE	1305.920	380.495	-1299.026	 H	13	ARG13	0.346	
204	1HH1	1304.942	377.932	-1296.907	 H	13	ARG13	0.448	
205	2HH1	1306.660	377.633	-1296.354	 H	13	ARG13	0.448	
206	1HH2	1307.843	380.136	-1298.388	 H	13	ARG13	0.448	
207	2HH2	1308.208	378.836	-1297.168	 H	13	ARG13	0.448	
208	   N	1300.907	379.920	-1302.540	N.am	14	VAL14	-0.416	
209	  CA	1301.232	379.561	-1303.918	C.3	14	VAL14	-0.087	
210	   C	1300.903	380.691	-1304.863	C.2	14	VAL14	0.597	
211	   O	1301.697	381.072	-1305.733	O.2	14	VAL14	-0.568	
212	  CB	1300.458	378.245	-1304.325	C.3	14	VAL14	0.299	
213	 CG1	1300.547	377.826	-1305.818	C.3	14	VAL14	-0.319	
214	 CG2	1300.888	376.992	-1303.525	C.3	14	VAL14	-0.319	
215	   H	1300.271	379.352	-1301.999	 H	14	VAL14	0.272	
216	  HA	1302.320	379.382	-1303.992	 H	14	VAL14	0.097	
217	  HB	1299.382	378.417	-1304.109	 H	14	VAL14	-0.030	
218	1HG1	1301.588	377.648	-1306.147	 H	14	VAL14	0.079	
219	2HG1	1299.973	376.904	-1306.032	 H	14	VAL14	0.079	
220	3HG1	1300.119	378.589	-1306.497	 H	14	VAL14	0.079	
221	1HG2	1300.801	377.150	-1302.434	 H	14	VAL14	0.079	
222	2HG2	1300.251	376.116	-1303.757	 H	14	VAL14	0.079	
223	3HG2	1301.935	376.701	-1303.730	 H	14	VAL14	0.079	
224	   N	1299.759	381.278	-1304.762	N.am	15	MET15	-0.416	
225	  CA	1299.440	382.372	-1305.675	C.3	15	MET15	-0.024	
226	   C	1300.471	383.470	-1305.587	C.2	15	MET15	0.597	
227	   O	1300.975	383.981	-1306.600	O.2	15	MET15	-0.568	
228	  CB	1298.019	382.919	-1305.366	C.3	15	MET15	0.034	
229	  CG	1296.856	381.922	-1305.559	C.3	15	MET15	0.002	
230	  SD	1295.283	382.790	-1305.444	S.3	15	MET15	-0.274	
231	  CE	1294.200	381.361	-1305.309	C.3	15	MET15	-0.054	
232	   H	1299.094	380.986	-1304.060	 H	15	MET15	0.272	
233	  HA	1299.466	381.984	-1306.711	 H	15	MET15	0.088	
234	 2HB	1297.818	383.798	-1306.008	 H	15	MET15	0.024	
235	 3HB	1297.984	383.311	-1304.330	 H	15	MET15	0.024	
236	 2HG	1296.898	381.136	-1304.781	 H	15	MET15	0.044	
237	 3HG	1296.919	381.407	-1306.535	 H	15	MET15	0.044	
238	 1HE	1294.344	380.673	-1306.161	 H	15	MET15	0.068	
239	 2HE	1294.409	380.808	-1304.376	 H	15	MET15	0.068	
240	 3HE	1293.143	381.677	-1305.292	 H	15	MET15	0.068	
241	   N	1300.840	383.891	-1304.425	N.am	16	ARG16	-0.348	
242	  CA	1301.838	384.954	-1304.340	C.3	16	ARG16	-0.264	
243	   C	1303.108	384.560	-1305.057	C.2	16	ARG16	0.734	
244	   O	1303.221	383.483	-1305.638	O.2	16	ARG16	-0.589	
245	  CB	1302.107	385.271	-1302.842	C.3	16	ARG16	-0.001	
246	  CG	1302.933	386.559	-1302.569	C.3	16	ARG16	0.039	
247	  CD	1303.183	386.778	-1301.068	C.3	16	ARG16	0.049	
248	  NE	1303.961	388.036	-1300.866	N.pl3	16	ARG16	-0.530	
249	  CZ	1304.352	388.517	-1299.690	C.cat	16	ARG16	0.808	
250	 NH1	1304.104	387.933	-1298.552	N.pl3	16	ARG16	-0.863	
251	 NH2	1305.017	389.629	-1299.671	N.pl3	16	ARG16	-0.863	
252	   H	1300.445	383.491	-1303.586	 H	16	ARG16	0.275	
253	  HA	1301.430	385.847	-1304.850	 H	16	ARG16	0.156	
254	 2HB	1302.603	384.394	-1302.376	 H	16	ARG16	0.033	
255	 3HB	1301.138	385.353	-1302.308	 H	16	ARG16	0.033	
256	 2HG	1302.404	387.430	-1303.006	 H	16	ARG16	0.029	
257	 3HG	1303.907	386.505	-1303.098	 H	16	ARG16	0.029	
258	 2HD	1303.731	385.902	-1300.654	 H	16	ARG16	0.069	
259	 3HD	1302.210	386.821	-1300.532	 H	16	ARG16	0.069	
260	  HE	1304.240	388.617	-1301.663	 H	16	ARG16	0.346	
261	1HH1	1303.577	387.061	-1298.637	 H	16	ARG16	0.448	
262	2HH1	1304.438	388.368	-1297.691	 H	16	ARG16	0.448	
263	1HH2	1305.203	390.072	-1300.573	 H	16	ARG16	0.448	
264	2HH2	1305.308	389.984	-1298.759	 H	16	ARG16	0.448	
@<TRIPOS>BOND
1 1 2 1
2 1 10 1
3 2 3 1
4 2 5 1
5 2 11 1
6 3 4 2
7 3 16 1
8 5 6 1
9 6 7 1
10 7 8 2
11 7 9 1
12 5 12 1
13 5 13 1
14 6 14 1
15 6 15 1
16 16 17 1
17 16 24 1
18 17 18 1
19 17 20 1
20 17 25 1
21 18 19 2
22 18 30 1
23 20 21 1
24 21 22 1
25 21 23 2
26 20 26 1
27 20 27 1
28 22 28 1
29 22 29 1
30 30 31 1
31 30 36 1
32 31 32 1
33 31 34 1
34 31 37 1
35 32 33 2
36 32 44 1
37 34 35 1
38 35 36 1
39 34 38 1
40 34 39 1
41 35 40 1
42 35 41 1
43 36 42 1
44 36 43 1
45 44 45 1
46 44 53 1
47 45 46 1
48 45 48 1
49 45 54 1
50 46 47 2
51 46 59 1
52 48 49 1
53 49 50 1
54 50 51 2
55 50 52 1
56 48 55 1
57 48 56 1
58 49 57 1
59 49 58 1
60 59 60 1
61 59 65 1
62 60 61 1
63 60 63 1
64 60 66 1
65 61 62 2
66 61 70 1
67 63 64 1
68 63 67 1
69 63 68 1
70 64 69 1
71 70 71 1
72 70 78 1
73 71 72 1
74 71 74 1
75 71 79 1
76 72 73 2
77 72 89 1
78 74 75 1
79 74 76 1
80 75 77 1
81 74 80 1
82 75 81 1
83 75 82 1
84 76 83 1
85 76 84 1
86 76 85 1
87 77 86 1
88 77 87 1
89 77 88 1
90 89 90 1
91 89 97 1
92 90 91 1
93 90 93 1
94 90 98 1
95 91 92 2
96 91 108 1
97 93 94 1
98 94 95 1
99 94 96 1
100 93 99 1
101 93 100 1
102 94 101 1
103 95 102 1
104 95 103 1
105 95 104 1
106 96 105 1
107 96 106 1
108 96 107 1
109 108 109 1
110 108 114 1
111 109 110 1
112 109 112 1
113 109 115 1
114 110 111 2
115 110 119 1
116 112 113 1
117 112 116 1
118 112 117 1
119 113 118 1
120 119 120 1
121 119 128 1
122 120 121 1
123 120 123 1
124 120 129 1
125 121 122 2
126 121 134 1
127 123 124 1
128 124 125 1
129 125 126 2
130 125 127 1
131 123 130 1
132 123 131 1
133 124 132 1
134 124 133 1
135 134 135 1
136 134 144 1
137 135 136 1
138 135 138 1
139 135 145 1
140 136 137 2
141 136 151 1
142 138 139 1
143 139 140 2
144 140 143 1
145 139 141 1
146 141 142 2
147 142 143 1
148 138 146 1
149 138 147 1
150 140 148 1
151 142 149 1
152 143 150 1
153 151 152 1
154 151 158 1
155 152 153 1
156 152 155 1
157 152 159 1
158 153 154 2
159 153 167 1
160 155 156 1
161 155 157 1
162 155 160 1
163 156 161 1
164 156 162 1
165 156 163 1
166 157 164 1
167 157 165 1
168 157 166 1
169 167 168 1
170 167 176 1
171 168 169 1
172 168 171 1
173 168 177 1
174 169 170 2
175 169 184 1
176 171 172 1
177 172 173 1
178 173 174 1
179 173 175 2
180 171 178 1
181 171 179 1
182 172 180 1
183 172 181 1
184 174 182 1
185 174 183 1
186 184 185 1
187 184 195 1
188 185 186 1
189 185 188 1
190 185 196 1
191 186 187 2
192 186 208 1
193 188 189 1
194 189 190 1
195 190 191 1
196 191 192 1
197 192 193 2
198 192 194 1
199 188 197 1
200 188 198 1
201 189 199 1
202 189 200 1
203 190 201 1
204 190 202 1
205 191 203 1
206 193 204 1
207 193 205 1
208 194 206 1
209 194 207 1
210 208 209 1
211 208 215 1
212 209 210 1
213 209 212 1
214 209 216 1
215 210 211 2
216 210 224 1
217 212 213 1
218 212 214 1
219 212 217 1
220 213 218 1
221 213 219 1
222 213 220 1
223 214 221 1
224 214 222 1
225 214 223 1
226 224 225 1
227 224 232 1
228 225 226 1
229 225 228 1
230 225 233 1
231 226 227 2
232 226 241 1
233 228 229 1
234 229 230 1
235 230 231 1
236 228 234 1
237 228 235 1
238 229 236 1
239 229 237 1
240 231 238 1
241 231 239 1
242 231 240 1
243 241 242 1
244 241 252 1
245 242 243 1
246 242 245 1
247 242 253 1
248 243 244 2
249 245 246 1
250 246 247 1
251 247 248 1
252 248 249 1
253 249 250 2
254 249 251 1
255 245 254 1
256 245 255 1
257 246 256 1
258 246 257 1
259 247 258 1
260 247 259 1
261 248 260 1
262 250 261 1
263 250 262 1
264 251 263 1
265 251 264 1
@<TRIPOS>SUBSTRUCTURE
1	GLU1	1	RESIDUE	1 ****	GLU
2	ASN2	16	RESIDUE	1 ****	ASN
3	PRO3	30	RESIDUE	1 ****	PRO
4	GLU4	44	RESIDUE	1 ****	GLU
5	SER5	59	RESIDUE	1 ****	SER
6	ILE6	70	RESIDUE	1 ****	ILE
7	LEU7	89	RESIDUE	1 ****	LEU
8	SER8	108	RESIDUE	1 ****	SER
9	GLU9	119	RESIDUE	1 ****	GLU
10	HIS10	134	RESIDUE	1 ****	HIS
11	VAL11	151	RESIDUE	1 ****	VAL
12	GLN12	167	RESIDUE	1 ****	GLN
13	ARG13	184	RESIDUE	1 ****	ARG
14	VAL14	208	RESIDUE	1 ****	VAL
15	MET15	224	RESIDUE	1 ****	MET
16	ARG16	241	RESIDUE	1 ****	ARG
