@<TRIPOS>MOLECULE
16-15
255 256 16              
SMALL
USER_CHARGES
@<TRIPOS>ATOM
1	   N	2609.527	799.944	-2728.093	N.3	1	GLU1	-0.516	
2	  CA	2610.086	801.293	-2728.093	C.3	1	GLU1	0.040	
3	   C	2611.595	801.253	-2728.093	C.2	1	GLU1	0.537	
4	   O	2612.271	801.952	-2728.861	O.2	1	GLU1	-0.582	
5	  CB	2609.562	802.078	-2726.856	C.3	1	GLU1	0.056	
6	  CG	2610.038	803.563	-2726.745	C.3	1	GLU1	0.014	
7	  CD	2609.614	804.367	-2725.530	C.2	1	GLU1	0.805	
8	 OE1	2608.885	803.865	-2724.652	O.co2	1	GLU1	-0.819	
9	 OE2	2610.044	805.537	-2725.458	O.co2	1	GLU1	-0.819	
10	   H	2610.154	799.065	-2728.093	 H	1	GLU1	0.294	
11	  HA	2609.760	801.811	-2729.013	 H	1	GLU1	0.111	
12	 2HB	2609.852	801.547	-2725.926	 H	1	GLU1	-0.017	
13	 3HB	2608.456	802.068	-2726.843	 H	1	GLU1	-0.017	
14	 2HG	2609.728	804.148	-2727.626	 H	1	GLU1	-0.043	
15	 3HG	2611.138	803.630	-2726.716	 H	1	GLU1	-0.043	
16	   N	2612.199	800.467	-2727.268	N.am	2	ASN2	-0.416	
17	  CA	2613.658	800.428	-2727.267	C.3	2	ASN2	0.014	
18	   C	2614.190	800.072	-2728.636	C.2	2	ASN2	0.597	
19	   O	2615.105	800.703	-2729.164	O.2	2	ASN2	-0.568	
20	  CB	2614.150	799.405	-2726.203	C.3	2	ASN2	-0.204	
21	  CG	2613.687	799.629	-2724.760	C.2	2	ASN2	0.713	
22	 ND2	2614.281	800.544	-2724.041	N.pl3	2	ASN2	-0.919	
23	 OD1	2612.766	798.995	-2724.266	O.2	2	ASN2	-0.593	
24	   H	2611.671	799.887	-2726.631	 H	2	ASN2	0.272	
25	  HA	2614.036	801.438	-2727.022	 H	2	ASN2	0.105	
26	 2HB	2615.254	799.346	-2726.206	 H	2	ASN2	0.080	
27	 3HB	2613.821	798.387	-2726.489	 H	2	ASN2	0.080	
28	1HD2	2613.800	800.717	-2723.155	 H	2	ASN2	0.420	
29	2HD2	2614.983	801.115	-2724.510	 H	2	ASN2	0.420	
30	   N	2613.668	799.078	-2729.270	N.am	3	PRO3	-0.255	
31	  CA	2614.121	798.668	-2730.592	C.3	3	PRO3	-0.027	
32	   C	2613.723	799.692	-2731.669	C.2	3	PRO3	0.590	
33	   O	2614.546	800.075	-2732.500	O.2	3	PRO3	-0.575	
34	  CB	2613.416	797.314	-2730.761	C.3	3	PRO3	-0.007	
35	  CG	2612.133	797.466	-2729.931	C.3	3	PRO3	0.019	
36	  CD	2612.590	798.285	-2728.721	C.3	3	PRO3	0.019	
37	  HA	2615.207	798.548	-2730.605	 H	3	PRO3	0.064	
38	 2HB	2614.039	796.532	-2730.320	 H	3	PRO3	0.025	
39	 3HB	2613.218	797.065	-2731.807	 H	3	PRO3	0.025	
40	 2HG	2611.705	796.504	-2729.640	 H	3	PRO3	0.021	
41	 3HG	2611.396	798.037	-2730.499	 H	3	PRO3	0.021	
42	 2HD	2612.979	797.635	-2727.934	 H	3	PRO3	0.039	
43	 3HD	2611.793	798.920	-2728.329	 H	3	PRO3	0.039	
44	   N	2612.518	800.152	-2731.701	N.am	4	GLU4	-0.516	
45	  CA	2612.159	801.123	-2732.731	C.3	4	GLU4	0.040	
46	   C	2613.058	802.334	-2732.670	C.2	4	GLU4	0.537	
47	   O	2613.585	802.813	-2733.684	O.2	4	GLU4	-0.582	
48	  CB	2610.670	801.542	-2732.562	C.3	4	GLU4	0.056	
49	  CG	2610.123	802.546	-2733.627	C.3	4	GLU4	0.014	
50	  CD	2608.697	803.043	-2733.484	C.2	4	GLU4	0.805	
51	 OE1	2607.970	802.645	-2732.554	O.co2	4	GLU4	-0.819	
52	 OE2	2608.308	803.872	-2734.333	O.co2	4	GLU4	-0.819	
53	   H	2611.833	799.846	-2731.025	 H	4	GLU4	0.294	
54	  HA	2612.291	800.653	-2733.722	 H	4	GLU4	0.111	
55	 2HB	2610.518	801.982	-2731.555	 H	4	GLU4	-0.017	
56	 3HB	2610.022	800.644	-2732.568	 H	4	GLU4	-0.017	
57	 2HG	2610.205	802.131	-2734.645	 H	4	GLU4	-0.043	
58	 3HG	2610.711	803.478	-2733.638	 H	4	GLU4	-0.043	
59	   N	2613.285	802.886	-2731.526	N.am	5	SER5	-0.416	
60	  CA	2614.155	804.057	-2731.468	C.3	5	SER5	-0.025	
61	   C	2615.514	803.751	-2732.053	C.2	5	SER5	0.597	
62	   O	2616.062	804.505	-2732.857	O.2	5	SER5	-0.568	
63	  CB	2614.266	804.590	-2730.017	C.3	5	SER5	0.212	
64	  OG	2614.997	803.710	-2729.156	O.3	5	SER5	-0.655	
65	   H	2612.868	802.515	-2730.685	 H	5	SER5	0.272	
66	  HA	2613.706	804.848	-2732.097	 H	5	SER5	0.084	
67	 2HB	2613.266	804.784	-2729.584	 H	5	SER5	0.035	
68	 3HB	2614.772	805.575	-2730.019	 H	5	SER5	0.035	
69	  HG	2614.508	802.885	-2729.105	 H	5	SER5	0.428	
70	   N	2616.118	802.668	-2731.698	N.am	6	ILE6	-0.416	
71	  CA	2617.431	802.373	-2732.264	C.3	6	ILE6	-0.060	
72	   C	2617.374	802.335	-2733.772	C.2	6	ILE6	0.597	
73	   O	2618.209	802.922	-2734.476	O.2	6	ILE6	-0.568	
74	  CB	2618.031	801.036	-2731.664	C.3	6	ILE6	0.130	
75	 CG1	2618.049	800.974	-2730.103	C.3	6	ILE6	-0.043	
76	 CG2	2619.472	800.734	-2732.179	C.3	6	ILE6	-0.320	
77	 CD1	2618.319	799.585	-2729.488	C.3	6	ILE6	-0.066	
78	   H	2615.689	802.034	-2731.040	 H	6	ILE6	0.272	
79	  HA	2618.106	803.207	-2731.997	 H	6	ILE6	0.087	
80	  HB	2617.372	800.210	-2732.009	 H	6	ILE6	0.019	
81	2HG1	2617.067	801.294	-2729.708	 H	6	ILE6	0.024	
82	3HG1	2618.765	801.716	-2729.698	 H	6	ILE6	0.024	
83	1HG2	2619.531	800.641	-2733.277	 H	6	ILE6	0.088	
84	2HG2	2620.194	801.516	-2731.876	 H	6	ILE6	0.088	
85	3HG2	2619.861	799.772	-2731.800	 H	6	ILE6	0.088	
86	1HD1	2617.590	798.831	-2729.843	 H	6	ILE6	0.019	
87	2HD1	2619.329	799.206	-2729.724	 H	6	ILE6	0.019	
88	3HD1	2618.242	799.615	-2728.385	 H	6	ILE6	0.019	
89	   N	2616.428	801.672	-2734.346	N.am	7	LEU7	-0.416	
90	  CA	2616.373	801.636	-2735.804	C.3	7	LEU7	-0.052	
91	   C	2616.301	803.031	-2736.377	C.2	7	LEU7	0.597	
92	   O	2617.022	803.393	-2737.320	O.2	7	LEU7	-0.568	
93	  CB	2615.170	800.776	-2736.285	C.3	7	LEU7	-0.110	
94	  CG	2615.097	799.296	-2735.818	C.3	7	LEU7	0.353	
95	 CD1	2613.907	798.591	-2736.483	C.3	7	LEU7	-0.412	
96	 CD2	2616.390	798.517	-2736.110	C.3	7	LEU7	-0.412	
97	   H	2615.736	801.185	-2733.794	 H	7	LEU7	0.272	
98	  HA	2617.315	801.195	-2736.179	 H	7	LEU7	0.092	
99	 2HB	2615.147	800.792	-2737.392	 H	7	LEU7	0.046	
100	 3HB	2614.230	801.279	-2735.981	 H	7	LEU7	0.046	
101	  HG	2614.927	799.289	-2734.721	 H	7	LEU7	-0.036	
102	1HD1	2612.949	799.100	-2736.261	 H	7	LEU7	0.100	
103	2HD1	2614.006	798.550	-2737.585	 H	7	LEU7	0.100	
104	3HD1	2613.799	797.550	-2736.127	 H	7	LEU7	0.100	
105	1HD2	2616.665	798.547	-2737.179	 H	7	LEU7	0.100	
106	2HD2	2617.243	798.928	-2735.538	 H	7	LEU7	0.100	
107	3HD2	2616.308	797.455	-2735.813	 H	7	LEU7	0.100	
108	   N	2615.464	803.872	-2735.871	N.am	8	ASP8	-0.516	
109	  CA	2615.395	805.221	-2736.425	C.3	8	ASP8	0.038	
110	   C	2616.742	805.901	-2736.369	C.2	8	ASP8	0.537	
111	   O	2617.215	806.505	-2737.344	O.2	8	ASP8	-0.582	
112	  CB	2614.317	806.061	-2735.684	C.3	8	ASP8	-0.030	
113	  CG	2614.099	807.482	-2736.226	C.2	8	ASP8	0.799	
114	 OD1	2614.163	807.680	-2737.457	O.co2	8	ASP8	-0.801	
115	 OD2	2613.907	808.408	-2735.411	O.co2	8	ASP8	-0.801	
116	   H	2614.866	803.602	-2735.104	 H	8	ASP8	0.294	
117	  HA	2615.112	805.143	-2737.492	 H	8	ASP8	0.088	
118	 2HB	2614.574	806.145	-2734.613	 H	8	ASP8	-0.012	
119	 3HB	2613.338	805.557	-2735.717	 H	8	ASP8	-0.012	
120	   N	2617.422	805.851	-2735.273	N.am	9	GLU9	-0.516	
121	  CA	2618.725	806.508	-2735.219	C.3	9	GLU9	0.040	
122	   C	2619.642	805.979	-2736.295	C.2	9	GLU9	0.537	
123	   O	2620.306	806.733	-2737.021	O.2	9	GLU9	-0.582	
124	  CB	2619.358	806.301	-2733.813	C.3	9	GLU9	0.056	
125	  CG	2620.741	806.992	-2733.585	C.3	9	GLU9	0.014	
126	  CD	2621.443	806.779	-2732.256	C.2	9	GLU9	0.805	
127	 OE1	2620.922	806.089	-2731.360	O.co2	9	GLU9	-0.819	
128	 OE2	2622.563	807.317	-2732.125	O.co2	9	GLU9	-0.819	
129	   H	2617.058	805.365	-2734.466	 H	9	GLU9	0.294	
130	  HA	2618.583	807.590	-2735.395	 H	9	GLU9	0.111	
131	 2HB	2619.471	805.216	-2733.610	 H	9	GLU9	-0.017	
132	 3HB	2618.662	806.655	-2733.029	 H	9	GLU9	-0.017	
133	 2HG	2620.670	808.083	-2733.725	 H	9	GLU9	-0.043	
134	 3HG	2621.488	806.647	-2734.319	 H	9	GLU9	-0.043	
135	   N	2619.738	804.704	-2736.463	N.am	10	HIS10	-0.416	
136	  CA	2620.625	804.192	-2737.504	C.3	10	HIS10	-0.058	
137	   C	2620.259	804.756	-2738.855	C.2	10	HIS10	0.597	
138	   O	2621.111	805.220	-2739.627	O.2	10	HIS10	-0.568	
139	  CB	2620.461	802.663	-2737.498	C.3	10	HIS10	-0.007	
140	  CG	2621.746	801.952	-2737.190	C.2	10	HIS10	0.187	
141	 CD2	2622.128	801.618	-2735.898	C.2	10	HIS10	-0.221	
142	 ND1	2622.698	801.545	-2738.123	N.2	10	HIS10	-0.543	
143	 CE1	2623.604	800.987	-2737.300	C.2	10	HIS10	0.163	
144	 NE2	2623.342	800.985	-2735.964	N.pl3	10	HIS10	-0.280	
145	   H	2619.208	804.069	-2735.885	 H	10	HIS10	0.272	
146	  HA	2621.645	804.549	-2737.280	 H	10	HIS10	0.136	
147	 2HB	2620.095	802.296	-2738.478	 H	10	HIS10	0.037	
148	 3HB	2619.705	802.327	-2736.758	 H	10	HIS10	0.037	
149	 2HD	2621.542	801.833	-2735.009	 H	10	HIS10	0.186	
150	 1HE	2624.495	800.566	-2737.747	 H	10	HIS10	0.144	
151	 2HE	2623.909	800.608	-2735.191	 H	10	HIS10	0.334	
152	   N	2619.021	804.755	-2739.218	N.am	11	VAL11	-0.416	
153	  CA	2618.666	805.301	-2740.525	C.3	11	VAL11	-0.087	
154	   C	2619.131	806.731	-2740.658	C.2	11	VAL11	0.597	
155	   O	2619.732	807.135	-2741.662	O.2	11	VAL11	-0.568	
156	  CB	2617.104	805.195	-2740.744	C.3	11	VAL11	0.299	
157	 CG1	2616.536	805.898	-2742.007	C.3	11	VAL11	-0.319	
158	 CG2	2616.579	803.741	-2740.816	C.3	11	VAL11	-0.319	
159	   H	2618.308	804.383	-2738.607	 H	11	VAL11	0.272	
160	  HA	2619.185	804.718	-2741.307	 H	11	VAL11	0.097	
161	  HB	2616.617	805.676	-2739.869	 H	11	VAL11	-0.030	
162	1HG1	2616.974	805.506	-2742.944	 H	11	VAL11	0.079	
163	2HG1	2615.437	805.792	-2742.089	 H	11	VAL11	0.079	
164	3HG1	2616.715	806.991	-2741.999	 H	11	VAL11	0.079	
165	1HG2	2616.869	803.154	-2739.925	 H	11	VAL11	0.079	
166	2HG2	2615.473	803.705	-2740.859	 H	11	VAL11	0.079	
167	3HG2	2616.960	803.199	-2741.702	 H	11	VAL11	0.079	
168	   N	2618.895	807.557	-2739.696	N.am	12	GLN12	-0.416	
169	  CA	2619.344	808.940	-2739.824	C.3	12	GLN12	-0.003	
170	   C	2620.833	809.007	-2740.062	C.2	12	GLN12	0.597	
171	   O	2621.321	809.714	-2740.942	O.2	12	GLN12	-0.568	
172	  CB	2618.953	809.708	-2738.542	C.3	12	GLN12	-0.004	
173	  CG	2619.315	811.230	-2738.512	C.3	12	GLN12	-0.064	
174	  CD	2619.013	812.044	-2737.247	C.2	12	GLN12	0.695	
175	 NE2	2618.446	811.469	-2736.218	N.pl3	12	GLN12	-0.941	
176	 OE1	2619.316	813.225	-2737.170	O.2	12	GLN12	-0.609	
177	   H	2618.406	807.252	-2738.867	 H	12	GLN12	0.272	
178	  HA	2618.844	809.396	-2740.699	 H	12	GLN12	0.085	
179	 2HB	2619.429	809.208	-2737.672	 H	12	GLN12	0.017	
180	 3HB	2617.863	809.602	-2738.378	 H	12	GLN12	0.017	
181	 2HG	2618.837	811.751	-2739.363	 H	12	GLN12	0.035	
182	 3HG	2620.398	811.372	-2738.678	 H	12	GLN12	0.035	
183	1HE2	2618.340	812.064	-2735.395	 H	12	GLN12	0.425	
184	2HE2	2618.282	810.465	-2736.321	 H	12	GLN12	0.425	
185	   N	2621.618	808.300	-2739.321	N.am	13	ARG13	-0.348	
186	  CA	2623.058	808.365	-2739.552	C.3	13	ARG13	-0.264	
187	   C	2623.394	807.992	-2740.977	C.2	13	ARG13	0.734	
188	   O	2624.163	808.664	-2741.662	O.2	13	ARG13	-0.589	
189	  CB	2623.771	807.427	-2738.538	C.3	13	ARG13	-0.001	
190	  CG	2625.317	807.579	-2738.458	C.3	13	ARG13	0.039	
191	  CD	2625.944	806.592	-2737.459	C.3	13	ARG13	0.049	
192	  NE	2627.421	806.799	-2737.409	N.pl3	13	ARG13	-0.530	
193	  CZ	2628.269	806.108	-2736.654	C.cat	13	ARG13	0.808	
194	 NH1	2627.904	805.144	-2735.856	N.pl3	13	ARG13	-0.863	
195	 NH2	2629.529	806.406	-2736.711	N.pl3	13	ARG13	-0.863	
196	   H	2621.242	807.711	-2738.592	 H	13	ARG13	0.275	
197	  HA	2623.383	809.411	-2739.395	 H	13	ARG13	0.156	
198	 2HB	2623.505	806.376	-2738.776	 H	13	ARG13	0.033	
199	 3HB	2623.347	807.594	-2737.528	 H	13	ARG13	0.033	
200	 2HG	2625.565	808.624	-2738.179	 H	13	ARG13	0.029	
201	 3HG	2625.767	807.422	-2739.459	 H	13	ARG13	0.029	
202	 2HD	2625.699	805.552	-2737.768	 H	13	ARG13	0.069	
203	 3HD	2625.488	806.739	-2736.457	 H	13	ARG13	0.069	
204	  HE	2627.872	807.521	-2737.981	 H	13	ARG13	0.346	
205	1HH1	2626.898	804.958	-2735.858	 H	13	ARG13	0.448	
206	2HH1	2628.617	804.661	-2735.307	 H	13	ARG13	0.448	
207	1HH2	2629.796	807.164	-2737.343	 H	13	ARG13	0.448	
208	2HH2	2630.164	805.865	-2736.123	 H	13	ARG13	0.448	
209	   N	2622.857	806.938	-2741.491	N.am	14	VAL14	-0.416	
210	  CA	2623.182	806.578	-2742.868	C.3	14	VAL14	-0.087	
211	   C	2622.852	807.707	-2743.814	C.2	14	VAL14	0.597	
212	   O	2623.645	808.088	-2744.684	O.2	14	VAL14	-0.568	
213	  CB	2622.409	805.261	-2743.274	C.3	14	VAL14	0.299	
214	 CG1	2622.498	804.841	-2744.768	C.3	14	VAL14	-0.319	
215	 CG2	2622.841	804.009	-2742.474	C.3	14	VAL14	-0.319	
216	   H	2622.222	806.370	-2740.948	 H	14	VAL14	0.272	
217	  HA	2624.270	806.400	-2742.943	 H	14	VAL14	0.097	
218	  HB	2621.333	805.432	-2743.058	 H	14	VAL14	-0.030	
219	1HG1	2623.539	804.664	-2745.097	 H	14	VAL14	0.079	
220	2HG1	2621.924	803.918	-2744.979	 H	14	VAL14	0.079	
221	3HG1	2622.069	805.603	-2745.446	 H	14	VAL14	0.079	
222	1HG2	2622.754	804.168	-2741.383	 H	14	VAL14	0.079	
223	2HG2	2622.204	803.132	-2742.705	 H	14	VAL14	0.079	
224	3HG2	2623.888	803.718	-2742.679	 H	14	VAL14	0.079	
225	   N	2621.708	808.293	-2743.713	N.am	15	MET15	-0.416	
226	  CA	2621.387	809.386	-2744.627	C.3	15	MET15	-0.024	
227	   C	2622.417	810.486	-2744.539	C.2	15	MET15	0.597	
228	   O	2622.920	810.996	-2745.552	O.2	15	MET15	-0.568	
229	  CB	2619.966	809.932	-2744.318	C.3	15	MET15	0.034	
230	  CG	2618.803	808.934	-2744.509	C.3	15	MET15	0.002	
231	  SD	2617.230	809.800	-2744.394	S.3	15	MET15	-0.274	
232	  CE	2616.149	808.371	-2744.257	C.3	15	MET15	-0.054	
233	   H	2621.042	808.001	-2743.011	 H	15	MET15	0.272	
234	  HA	2621.413	808.998	-2745.662	 H	15	MET15	0.088	
235	 2HB	2619.763	810.810	-2744.960	 H	15	MET15	0.024	
236	 3HB	2619.930	810.325	-2743.281	 H	15	MET15	0.024	
237	 2HG	2618.847	808.148	-2743.731	 H	15	MET15	0.044	
238	 3HG	2618.866	808.418	-2745.485	 H	15	MET15	0.044	
239	 1HE	2616.292	807.682	-2745.109	 H	15	MET15	0.068	
240	 2HE	2616.358	807.818	-2743.324	 H	15	MET15	0.068	
241	 3HE	2615.091	808.686	-2744.240	 H	15	MET15	0.068	
242	   N	2622.786	810.907	-2743.377	N.am	16	ASN16	-0.416	
243	  CA	2623.783	811.971	-2743.294	C.3	16	ASN16	0.014	
244	   C	2625.054	811.578	-2744.010	C.2	16	ASN16	0.597	
245	   O	2625.176	810.491	-2744.573	O.2	16	ASN16	-0.568	
246	  CB	2624.071	812.296	-2741.800	C.3	16	ASN16	-0.204	
247	  CG	2622.874	812.707	-2740.936	C.2	16	ASN16	0.713	
248	 ND2	2622.416	813.926	-2741.032	N.pl3	16	ASN16	-0.919	
249	 OD1	2622.321	811.926	-2740.177	O.2	16	ASN16	-0.593	
250	   H	2622.392	810.508	-2742.538	 H	16	ASN16	0.272	
251	  HA	2623.383	812.866	-2743.804	 H	16	ASN16	0.105	
252	 2HB	2624.843	813.085	-2741.719	 H	16	ASN16	0.080	
253	 3HB	2624.529	811.414	-2741.311	 H	16	ASN16	0.080	
254	1HD2	2621.531	814.050	-2740.534	 H	16	ASN16	0.420	
255	2HD2	2622.841	814.525	-2741.740	 H	16	ASN16	0.420	
@<TRIPOS>BOND
1 1 2 1
2 1 10 1
3 2 3 1
4 2 5 1
5 2 11 1
6 3 4 2
7 3 16 1
8 5 6 1
9 6 7 1
10 7 8 2
11 7 9 1
12 5 12 1
13 5 13 1
14 6 14 1
15 6 15 1
16 16 17 1
17 16 24 1
18 17 18 1
19 17 20 1
20 17 25 1
21 18 19 2
22 18 30 1
23 20 21 1
24 21 22 1
25 21 23 2
26 20 26 1
27 20 27 1
28 22 28 1
29 22 29 1
30 30 31 1
31 30 36 1
32 31 32 1
33 31 34 1
34 31 37 1
35 32 33 2
36 32 44 1
37 34 35 1
38 35 36 1
39 34 38 1
40 34 39 1
41 35 40 1
42 35 41 1
43 36 42 1
44 36 43 1
45 44 45 1
46 44 53 1
47 45 46 1
48 45 48 1
49 45 54 1
50 46 47 2
51 46 59 1
52 48 49 1
53 49 50 1
54 50 51 2
55 50 52 1
56 48 55 1
57 48 56 1
58 49 57 1
59 49 58 1
60 59 60 1
61 59 65 1
62 60 61 1
63 60 63 1
64 60 66 1
65 61 62 2
66 61 70 1
67 63 64 1
68 63 67 1
69 63 68 1
70 64 69 1
71 70 71 1
72 70 78 1
73 71 72 1
74 71 74 1
75 71 79 1
76 72 73 2
77 72 89 1
78 74 75 1
79 74 76 1
80 75 77 1
81 74 80 1
82 75 81 1
83 75 82 1
84 76 83 1
85 76 84 1
86 76 85 1
87 77 86 1
88 77 87 1
89 77 88 1
90 89 90 1
91 89 97 1
92 90 91 1
93 90 93 1
94 90 98 1
95 91 92 2
96 91 108 1
97 93 94 1
98 94 95 1
99 94 96 1
100 93 99 1
101 93 100 1
102 94 101 1
103 95 102 1
104 95 103 1
105 95 104 1
106 96 105 1
107 96 106 1
108 96 107 1
109 108 109 1
110 108 116 1
111 109 110 1
112 109 112 1
113 109 117 1
114 110 111 2
115 110 120 1
116 112 113 1
117 113 114 2
118 113 115 1
119 112 118 1
120 112 119 1
121 120 121 1
122 120 129 1
123 121 122 1
124 121 124 1
125 121 130 1
126 122 123 2
127 122 135 1
128 124 125 1
129 125 126 1
130 126 127 2
131 126 128 1
132 124 131 1
133 124 132 1
134 125 133 1
135 125 134 1
136 135 136 1
137 135 145 1
138 136 137 1
139 136 139 1
140 136 146 1
141 137 138 2
142 137 152 1
143 139 140 1
144 140 141 2
145 141 144 1
146 140 142 1
147 142 143 2
148 143 144 1
149 139 147 1
150 139 148 1
151 141 149 1
152 143 150 1
153 144 151 1
154 152 153 1
155 152 159 1
156 153 154 1
157 153 156 1
158 153 160 1
159 154 155 2
160 154 168 1
161 156 157 1
162 156 158 1
163 156 161 1
164 157 162 1
165 157 163 1
166 157 164 1
167 158 165 1
168 158 166 1
169 158 167 1
170 168 169 1
171 168 177 1
172 169 170 1
173 169 172 1
174 169 178 1
175 170 171 2
176 170 185 1
177 172 173 1
178 173 174 1
179 174 175 1
180 174 176 2
181 172 179 1
182 172 180 1
183 173 181 1
184 173 182 1
185 175 183 1
186 175 184 1
187 185 186 1
188 185 196 1
189 186 187 1
190 186 189 1
191 186 197 1
192 187 188 2
193 187 209 1
194 189 190 1
195 190 191 1
196 191 192 1
197 192 193 1
198 193 194 2
199 193 195 1
200 189 198 1
201 189 199 1
202 190 200 1
203 190 201 1
204 191 202 1
205 191 203 1
206 192 204 1
207 194 205 1
208 194 206 1
209 195 207 1
210 195 208 1
211 209 210 1
212 209 216 1
213 210 211 1
214 210 213 1
215 210 217 1
216 211 212 2
217 211 225 1
218 213 214 1
219 213 215 1
220 213 218 1
221 214 219 1
222 214 220 1
223 214 221 1
224 215 222 1
225 215 223 1
226 215 224 1
227 225 226 1
228 225 233 1
229 226 227 1
230 226 229 1
231 226 234 1
232 227 228 2
233 227 242 1
234 229 230 1
235 230 231 1
236 231 232 1
237 229 235 1
238 229 236 1
239 230 237 1
240 230 238 1
241 232 239 1
242 232 240 1
243 232 241 1
244 242 243 1
245 242 250 1
246 243 244 1
247 243 246 1
248 243 251 1
249 244 245 2
250 246 247 1
251 247 248 1
252 247 249 2
253 246 252 1
254 246 253 1
255 248 254 1
256 248 255 1
@<TRIPOS>SUBSTRUCTURE
1	GLU1	1	RESIDUE	1 ****	GLU
2	ASN2	16	RESIDUE	1 ****	ASN
3	PRO3	30	RESIDUE	1 ****	PRO
4	GLU4	44	RESIDUE	1 ****	GLU
5	SER5	59	RESIDUE	1 ****	SER
6	ILE6	70	RESIDUE	1 ****	ILE
7	LEU7	89	RESIDUE	1 ****	LEU
8	ASP8	108	RESIDUE	1 ****	ASP
9	GLU9	120	RESIDUE	1 ****	GLU
10	HIS10	135	RESIDUE	1 ****	HIS
11	VAL11	152	RESIDUE	1 ****	VAL
12	GLN12	168	RESIDUE	1 ****	GLN
13	ARG13	185	RESIDUE	1 ****	ARG
14	VAL14	209	RESIDUE	1 ****	VAL
15	MET15	225	RESIDUE	1 ****	MET
16	ASN16	242	RESIDUE	1 ****	ASN
