@<TRIPOS>MOLECULE
5-3
261 262 16              
SMALL
USER_CHARGES
@<TRIPOS>ATOM
1	   N	713.888	182.540	-667.510	N.3	1	GLU1	-0.516	
2	  CA	714.447	183.889	-667.510	C.3	1	GLU1	0.040	
3	   C	715.956	183.849	-667.510	C.2	1	GLU1	0.537	
4	   O	716.632	184.548	-668.279	O.2	1	GLU1	-0.582	
5	  CB	713.924	184.674	-666.273	C.3	1	GLU1	0.056	
6	  CG	714.399	186.159	-666.162	C.3	1	GLU1	0.014	
7	  CD	713.975	186.963	-664.947	C.2	1	GLU1	0.805	
8	 OE1	713.247	186.461	-664.069	O.co2	1	GLU1	-0.819	
9	 OE2	714.405	188.133	-664.875	O.co2	1	GLU1	-0.819	
10	   H	714.515	181.661	-667.510	 H	1	GLU1	0.294	
11	  HA	714.121	184.407	-668.430	 H	1	GLU1	0.111	
12	 2HB	714.213	184.143	-665.343	 H	1	GLU1	-0.017	
13	 3HB	712.817	184.664	-666.260	 H	1	GLU1	-0.017	
14	 2HG	714.089	186.744	-667.043	 H	1	GLU1	-0.043	
15	 3HG	715.499	186.226	-666.133	 H	1	GLU1	-0.043	
16	   N	716.561	183.063	-666.685	N.am	2	ASN2	-0.416	
17	  CA	718.020	183.025	-666.685	C.3	2	ASN2	0.014	
18	   C	718.551	182.669	-668.053	C.2	2	ASN2	0.597	
19	   O	719.466	183.300	-668.582	O.2	2	ASN2	-0.568	
20	  CB	718.512	182.002	-665.620	C.3	2	ASN2	-0.204	
21	  CG	718.049	182.226	-664.177	C.2	2	ASN2	0.713	
22	 ND2	718.643	183.141	-663.459	N.pl3	2	ASN2	-0.919	
23	 OD1	717.129	181.592	-663.683	O.2	2	ASN2	-0.593	
24	   H	716.033	182.484	-666.048	 H	2	ASN2	0.272	
25	  HA	718.397	184.035	-666.439	 H	2	ASN2	0.105	
26	 2HB	719.617	181.943	-665.624	 H	2	ASN2	0.080	
27	 3HB	718.183	180.983	-665.906	 H	2	ASN2	0.080	
28	1HD2	718.163	183.313	-662.572	 H	2	ASN2	0.420	
29	2HD2	719.345	183.712	-663.928	 H	2	ASN2	0.420	
30	   N	718.030	181.674	-668.688	N.am	3	PRO3	-0.255	
31	  CA	718.482	181.265	-670.009	C.3	3	PRO3	-0.027	
32	   C	718.084	182.288	-671.086	C.2	3	PRO3	0.590	
33	   O	718.907	182.672	-671.917	O.2	3	PRO3	-0.575	
34	  CB	717.778	179.910	-670.179	C.3	3	PRO3	-0.007	
35	  CG	716.495	180.062	-669.348	C.3	3	PRO3	0.019	
36	  CD	716.952	180.881	-668.139	C.3	3	PRO3	0.019	
37	  HA	719.568	181.145	-670.023	 H	3	PRO3	0.064	
38	 2HB	718.401	179.129	-669.738	 H	3	PRO3	0.025	
39	 3HB	717.580	179.662	-671.224	 H	3	PRO3	0.025	
40	 2HG	716.067	179.100	-669.057	 H	3	PRO3	0.021	
41	 3HG	715.757	180.633	-669.916	 H	3	PRO3	0.021	
42	 2HD	717.341	180.231	-667.351	 H	3	PRO3	0.039	
43	 3HD	716.155	181.517	-667.745	 H	3	PRO3	0.039	
44	   N	716.879	182.748	-671.118	N.am	4	GLU4	-0.516	
45	  CA	716.519	183.719	-672.148	C.3	4	GLU4	0.040	
46	   C	717.418	184.930	-672.087	C.2	4	GLU4	0.537	
47	   O	717.944	185.410	-673.101	O.2	4	GLU4	-0.582	
48	  CB	715.031	184.138	-671.978	C.3	4	GLU4	0.056	
49	  CG	714.482	185.141	-673.044	C.3	4	GLU4	0.014	
50	  CD	713.056	185.637	-672.900	C.2	4	GLU4	0.805	
51	 OE1	712.329	185.239	-671.969	O.co2	4	GLU4	-0.819	
52	 OE2	712.666	186.467	-673.748	O.co2	4	GLU4	-0.819	
53	   H	716.195	182.441	-670.442	 H	4	GLU4	0.294	
54	  HA	716.650	183.249	-673.139	 H	4	GLU4	0.111	
55	 2HB	714.878	184.577	-670.971	 H	4	GLU4	-0.017	
56	 3HB	714.383	183.240	-671.984	 H	4	GLU4	-0.017	
57	 2HG	714.564	184.726	-674.061	 H	4	GLU4	-0.043	
58	 3HG	715.070	186.073	-673.055	 H	4	GLU4	-0.043	
59	   N	717.645	185.483	-670.944	N.am	5	GLY5	-0.416	
60	  CA	718.515	186.655	-670.885	C.3	5	GLY5	-0.025	
61	   C	719.872	186.351	-671.469	C.2	5	GLY5	0.597	
62	   O	720.422	187.106	-672.275	O.2	5	GLY5	-0.568	
63	   H	717.228	185.111	-670.102	 H	5	GLY5	0.272	
64	 3HA	718.624	186.934	-669.878	 H	5	GLY5	0.070	
65	  HA	718.062	187.468	-671.482	 H	5	GLY5	0.070	
66	   N	720.477	185.268	-671.115	N.am	6	ILE6	-0.416	
67	  CA	721.791	184.973	-671.680	C.3	6	ILE6	-0.060	
68	   C	721.735	184.936	-673.188	C.2	6	ILE6	0.597	
69	   O	722.570	185.525	-673.891	O.2	6	ILE6	-0.568	
70	  CB	722.391	183.637	-671.080	C.3	6	ILE6	0.130	
71	 CG1	722.409	183.574	-669.519	C.3	6	ILE6	-0.043	
72	 CG2	723.832	183.336	-671.595	C.3	6	ILE6	-0.320	
73	 CD1	722.679	182.185	-668.905	C.3	6	ILE6	-0.066	
74	   H	720.049	184.633	-670.457	 H	6	ILE6	0.272	
75	  HA	722.465	185.808	-671.412	 H	6	ILE6	0.087	
76	  HB	721.733	182.811	-671.425	 H	6	ILE6	0.019	
77	2HG1	721.426	183.894	-669.124	 H	6	ILE6	0.024	
78	3HG1	723.124	184.316	-669.114	 H	6	ILE6	0.024	
79	1HG2	723.892	183.243	-672.693	 H	6	ILE6	0.088	
80	2HG2	724.554	184.118	-671.292	 H	6	ILE6	0.088	
81	3HG2	724.222	182.374	-671.216	 H	6	ILE6	0.088	
82	1HD1	721.951	181.431	-669.260	 H	6	ILE6	0.019	
83	2HD1	723.690	181.807	-669.140	 H	6	ILE6	0.019	
84	3HD1	722.602	182.214	-667.802	 H	6	ILE6	0.019	
85	   N	720.790	184.273	-673.763	N.am	7	LEU7	-0.416	
86	  CA	720.736	184.237	-675.222	C.3	7	LEU7	-0.052	
87	   C	720.664	185.633	-675.794	C.2	7	LEU7	0.597	
88	   O	721.385	185.996	-676.735	O.2	7	LEU7	-0.568	
89	  CB	719.534	183.377	-675.703	C.3	7	LEU7	-0.110	
90	  CG	719.461	181.897	-675.237	C.3	7	LEU7	0.353	
91	 CD1	718.272	181.191	-675.904	C.3	7	LEU7	-0.412	
92	 CD2	720.755	181.119	-675.528	C.3	7	LEU7	-0.412	
93	   H	720.098	183.785	-673.212	 H	7	LEU7	0.272	
94	  HA	721.678	183.798	-675.595	 H	7	LEU7	0.092	
95	 2HB	719.511	183.393	-676.811	 H	7	LEU7	0.046	
96	 3HB	718.593	183.879	-675.400	 H	7	LEU7	0.046	
97	  HG	719.290	181.889	-674.140	 H	7	LEU7	-0.036	
98	1HD1	717.314	181.700	-675.682	 H	7	LEU7	0.100	
99	2HD1	718.372	181.151	-677.005	 H	7	LEU7	0.100	
100	3HD1	718.165	180.150	-675.548	 H	7	LEU7	0.100	
101	1HD2	721.031	181.149	-676.598	 H	7	LEU7	0.100	
102	2HD2	721.608	181.530	-674.956	 H	7	LEU7	0.100	
103	3HD2	720.674	180.056	-675.233	 H	7	LEU7	0.100	
104	   N	719.826	186.473	-675.288	N.am	8	ASP8	-0.516	
105	  CA	719.755	187.823	-675.840	C.3	8	ASP8	0.038	
106	   C	721.101	188.503	-675.782	C.2	8	ASP8	0.537	
107	   O	721.575	189.109	-676.756	O.2	8	ASP8	-0.582	
108	  CB	718.676	188.661	-675.099	C.3	8	ASP8	-0.030	
109	  CG	718.457	190.082	-675.639	C.2	8	ASP8	0.799	
110	 OD1	718.522	190.281	-676.870	O.co2	8	ASP8	-0.801	
111	 OD2	718.264	191.007	-674.824	O.co2	8	ASP8	-0.801	
112	   H	719.227	186.201	-674.521	 H	8	ASP8	0.294	
113	  HA	719.473	187.745	-676.908	 H	8	ASP8	0.088	
114	 2HB	718.932	188.744	-674.027	 H	8	ASP8	-0.012	
115	 3HB	717.697	188.155	-675.133	 H	8	ASP8	-0.012	
116	   N	721.780	188.453	-674.686	N.am	9	GLU9	-0.516	
117	  CA	723.083	189.111	-674.629	C.3	9	GLU9	0.040	
118	   C	724.002	188.584	-675.705	C.2	9	GLU9	0.537	
119	   O	724.666	189.339	-676.429	O.2	9	GLU9	-0.582	
120	  CB	723.715	188.903	-673.224	C.3	9	GLU9	0.056	
121	  CG	725.097	189.596	-672.993	C.3	9	GLU9	0.014	
122	  CD	725.798	189.382	-671.664	C.2	9	GLU9	0.805	
123	 OE1	725.276	188.690	-670.768	O.co2	9	GLU9	-0.819	
124	 OE2	726.917	189.920	-671.531	O.co2	9	GLU9	-0.819	
125	   H	721.417	187.966	-673.879	 H	9	GLU9	0.294	
126	  HA	722.940	190.193	-674.804	 H	9	GLU9	0.111	
127	 2HB	723.829	187.818	-673.021	 H	9	GLU9	-0.017	
128	 3HB	723.017	189.255	-672.440	 H	9	GLU9	-0.017	
129	 2HG	725.025	190.686	-673.132	 H	9	GLU9	-0.043	
130	 3HG	725.845	189.251	-673.726	 H	9	GLU9	-0.043	
131	   N	724.099	187.309	-675.875	N.am	10	HIS10	-0.416	
132	  CA	724.988	186.799	-676.915	C.3	10	HIS10	-0.058	
133	   C	724.622	187.364	-678.266	C.2	10	HIS10	0.597	
134	   O	725.475	187.829	-679.037	O.2	10	HIS10	-0.568	
135	  CB	724.825	185.270	-676.911	C.3	10	HIS10	-0.007	
136	  CG	726.110	184.560	-676.602	C.2	10	HIS10	0.187	
137	 CD2	726.490	184.224	-675.309	C.2	10	HIS10	-0.221	
138	 ND1	727.063	184.155	-677.534	N.2	10	HIS10	-0.543	
139	 CE1	727.969	183.597	-676.710	C.2	10	HIS10	0.163	
140	 NE2	727.705	183.593	-675.375	N.pl3	10	HIS10	-0.280	
141	   H	723.568	186.673	-675.297	 H	10	HIS10	0.272	
142	  HA	726.007	187.156	-676.688	 H	10	HIS10	0.136	
143	 2HB	724.461	184.903	-677.891	 H	10	HIS10	0.037	
144	 3HB	724.069	184.932	-676.172	 H	10	HIS10	0.037	
145	 2HD	725.904	184.439	-674.421	 H	10	HIS10	0.186	
146	 1HE	728.861	183.176	-677.156	 H	10	HIS10	0.144	
147	 2HE	728.272	183.215	-674.602	 H	10	HIS10	0.334	
148	   N	723.385	187.363	-678.630	N.am	11	VAL11	-0.416	
149	  CA	723.031	187.909	-679.937	C.3	11	VAL11	-0.087	
150	   C	723.494	189.340	-680.068	C.2	11	VAL11	0.597	
151	   O	724.096	189.746	-681.070	O.2	11	VAL11	-0.568	
152	  CB	721.469	187.802	-680.158	C.3	11	VAL11	0.299	
153	 CG1	720.902	188.507	-681.421	C.3	11	VAL11	-0.319	
154	 CG2	720.946	186.348	-680.232	C.3	11	VAL11	-0.319	
155	   H	722.671	186.989	-678.020	 H	11	VAL11	0.272	
156	  HA	723.551	187.328	-680.719	 H	11	VAL11	0.097	
157	  HB	720.981	188.282	-679.282	 H	11	VAL11	-0.030	
158	1HG1	721.341	188.116	-682.357	 H	11	VAL11	0.079	
159	2HG1	719.803	188.399	-681.503	 H	11	VAL11	0.079	
160	3HG1	721.079	189.599	-681.410	 H	11	VAL11	0.079	
161	1HG2	721.235	185.760	-679.341	 H	11	VAL11	0.079	
162	2HG2	719.840	186.310	-680.276	 H	11	VAL11	0.079	
163	3HG2	721.328	185.808	-681.119	 H	11	VAL11	0.079	
164	   N	723.256	190.165	-679.105	N.am	12	GLN12	-0.416	
165	  CA	723.704	191.548	-679.231	C.3	12	GLN12	-0.003	
166	   C	725.194	191.617	-679.468	C.2	12	GLN12	0.597	
167	   O	725.682	192.326	-680.346	O.2	12	GLN12	-0.568	
168	  CB	723.312	192.315	-677.949	C.3	12	GLN12	-0.004	
169	  CG	723.671	193.837	-677.916	C.3	12	GLN12	-0.064	
170	  CD	723.367	194.650	-676.651	C.2	12	GLN12	0.695	
171	 NE2	722.800	194.072	-675.623	N.pl3	12	GLN12	-0.941	
172	 OE1	723.669	195.831	-676.573	O.2	12	GLN12	-0.609	
173	   H	722.767	189.858	-678.277	 H	12	GLN12	0.272	
174	  HA	723.205	192.005	-680.107	 H	12	GLN12	0.085	
175	 2HB	723.787	191.815	-677.079	 H	12	GLN12	0.017	
176	 3HB	722.221	192.207	-677.786	 H	12	GLN12	0.017	
177	 2HG	723.194	194.358	-678.767	 H	12	GLN12	0.035	
178	 3HG	724.755	193.980	-678.081	 H	12	GLN12	0.035	
179	1HE2	722.692	194.666	-674.800	 H	12	GLN12	0.425	
180	2HE2	722.637	193.069	-675.728	 H	12	GLN12	0.425	
181	   N	725.979	190.910	-678.727	N.am	13	ARG13	-0.348	
182	  CA	727.419	190.976	-678.956	C.3	13	ARG13	-0.264	
183	   C	727.757	190.606	-680.381	C.2	13	ARG13	0.734	
184	   O	728.525	191.278	-681.064	O.2	13	ARG13	-0.589	
185	  CB	728.132	190.037	-677.942	C.3	13	ARG13	-0.001	
186	  CG	729.677	190.191	-677.859	C.3	13	ARG13	0.039	
187	  CD	730.303	189.203	-676.862	C.3	13	ARG13	0.049	
188	  NE	731.780	189.411	-676.810	N.pl3	13	ARG13	-0.530	
189	  CZ	732.628	188.719	-676.054	C.cat	13	ARG13	0.808	
190	 NH1	732.263	187.754	-675.258	N.pl3	13	ARG13	-0.863	
191	 NH2	733.887	189.019	-676.110	N.pl3	13	ARG13	-0.863	
192	   H	725.602	190.319	-677.999	 H	13	ARG13	0.275	
193	  HA	727.743	192.022	-678.797	 H	13	ARG13	0.156	
194	 2HB	727.866	188.987	-678.182	 H	13	ARG13	0.033	
195	 3HB	727.706	190.203	-676.932	 H	13	ARG13	0.033	
196	 2HG	729.924	191.236	-677.579	 H	13	ARG13	0.029	
197	 3HG	730.128	190.036	-678.861	 H	13	ARG13	0.029	
198	 2HD	730.060	188.163	-677.172	 H	13	ARG13	0.069	
199	 3HD	729.846	189.348	-675.859	 H	13	ARG13	0.069	
200	  HE	732.232	190.134	-677.380	 H	13	ARG13	0.346	
201	1HH1	731.257	187.568	-675.262	 H	13	ARG13	0.448	
202	2HH1	732.975	187.271	-674.709	 H	13	ARG13	0.448	
203	1HH2	734.155	189.777	-676.740	 H	13	ARG13	0.448	
204	2HH2	734.522	188.477	-675.521	 H	13	ARG13	0.448	
205	   N	727.221	189.551	-680.897	N.am	14	VAL14	-0.416	
206	  CA	727.548	189.193	-682.274	C.3	14	VAL14	-0.087	
207	   C	727.218	190.323	-683.219	C.2	14	VAL14	0.597	
208	   O	728.012	190.706	-684.088	O.2	14	VAL14	-0.568	
209	  CB	726.776	187.876	-682.682	C.3	14	VAL14	0.299	
210	 CG1	726.867	187.458	-684.176	C.3	14	VAL14	-0.319	
211	 CG2	727.208	186.623	-681.882	C.3	14	VAL14	-0.319	
212	   H	726.586	188.982	-680.356	 H	14	VAL14	0.272	
213	  HA	728.636	189.017	-682.348	 H	14	VAL14	0.097	
214	  HB	725.700	188.046	-682.467	 H	14	VAL14	-0.030	
215	1HG1	727.909	187.282	-684.504	 H	14	VAL14	0.079	
216	2HG1	726.295	186.535	-684.390	 H	14	VAL14	0.079	
217	3HG1	726.438	188.221	-684.854	 H	14	VAL14	0.079	
218	1HG2	727.120	186.781	-680.792	 H	14	VAL14	0.079	
219	2HG2	726.573	185.747	-682.116	 H	14	VAL14	0.079	
220	3HG2	728.256	186.334	-682.087	 H	14	VAL14	0.079	
221	   N	726.073	190.909	-683.118	N.am	15	MET15	-0.416	
222	  CA	725.753	192.002	-684.031	C.3	15	MET15	-0.024	
223	   C	726.783	193.102	-683.942	C.2	15	MET15	0.597	
224	   O	727.286	193.614	-684.954	O.2	15	MET15	-0.568	
225	  CB	724.331	192.547	-683.723	C.3	15	MET15	0.034	
226	  CG	723.170	191.548	-683.917	C.3	15	MET15	0.002	
227	  SD	721.595	192.413	-683.803	S.3	15	MET15	-0.274	
228	  CE	720.514	190.983	-683.669	C.3	15	MET15	-0.054	
229	   H	725.407	190.615	-682.417	 H	15	MET15	0.272	
230	  HA	725.780	191.615	-685.067	 H	15	MET15	0.088	
231	 2HB	724.129	193.426	-684.365	 H	15	MET15	0.024	
232	 3HB	724.294	192.938	-682.687	 H	15	MET15	0.024	
233	 2HG	723.212	190.762	-683.139	 H	15	MET15	0.044	
234	 3HG	723.234	191.033	-684.893	 H	15	MET15	0.044	
235	 1HE	720.659	190.295	-684.521	 H	15	MET15	0.068	
236	 2HE	720.723	190.430	-682.736	 H	15	MET15	0.068	
237	 3HE	719.457	191.298	-683.653	 H	15	MET15	0.068	
238	   N	727.150	193.523	-682.779	N.am	16	ARG16	-0.348	
239	  CA	728.146	194.587	-682.694	C.3	16	ARG16	-0.264	
240	   C	729.417	194.195	-683.409	C.2	16	ARG16	0.734	
241	   O	729.532	193.119	-683.992	O.2	16	ARG16	-0.589	
242	  CB	728.414	194.904	-681.195	C.3	16	ARG16	-0.001	
243	  CG	729.238	196.193	-680.921	C.3	16	ARG16	0.039	
244	  CD	729.486	196.412	-679.420	C.3	16	ARG16	0.049	
245	  NE	730.262	197.671	-679.217	N.pl3	16	ARG16	-0.530	
246	  CZ	730.652	198.153	-678.041	C.cat	16	ARG16	0.808	
247	 NH1	730.404	197.568	-676.903	N.pl3	16	ARG16	-0.863	
248	 NH2	731.315	199.266	-678.021	N.pl3	16	ARG16	-0.863	
249	   H	726.755	193.122	-681.941	 H	16	ARG16	0.275	
250	  HA	727.737	195.480	-683.204	 H	16	ARG16	0.156	
251	 2HB	728.911	194.028	-680.729	 H	16	ARG16	0.033	
252	 3HB	727.444	194.984	-680.662	 H	16	ARG16	0.033	
253	 2HG	728.708	197.064	-681.358	 H	16	ARG16	0.029	
254	 3HG	730.212	196.141	-681.449	 H	16	ARG16	0.029	
255	 2HD	730.035	195.537	-679.006	 H	16	ARG16	0.069	
256	 3HD	728.513	196.454	-678.885	 H	16	ARG16	0.069	
257	  HE	730.541	198.253	-680.014	 H	16	ARG16	0.346	
258	1HH1	729.878	196.695	-676.989	 H	16	ARG16	0.448	
259	2HH1	730.737	198.003	-676.042	 H	16	ARG16	0.448	
260	1HH2	731.501	199.709	-678.923	 H	16	ARG16	0.448	
261	2HH2	731.605	199.621	-677.108	 H	16	ARG16	0.448	
@<TRIPOS>BOND
1 1 2 1
2 1 10 1
3 2 3 1
4 2 5 1
5 2 11 1
6 3 4 2
7 3 16 1
8 5 6 1
9 6 7 1
10 7 8 2
11 7 9 1
12 5 12 1
13 5 13 1
14 6 14 1
15 6 15 1
16 16 17 1
17 16 24 1
18 17 18 1
19 17 20 1
20 17 25 1
21 18 19 2
22 18 30 1
23 20 21 1
24 21 22 1
25 21 23 2
26 20 26 1
27 20 27 1
28 22 28 1
29 22 29 1
30 30 31 1
31 30 36 1
32 31 32 1
33 31 34 1
34 31 37 1
35 32 33 2
36 32 44 1
37 34 35 1
38 35 36 1
39 34 38 1
40 34 39 1
41 35 40 1
42 35 41 1
43 36 42 1
44 36 43 1
45 44 45 1
46 44 53 1
47 45 46 1
48 45 48 1
49 45 54 1
50 46 47 2
51 46 59 1
52 48 49 1
53 49 50 1
54 50 51 2
55 50 52 1
56 48 55 1
57 48 56 1
58 49 57 1
59 49 58 1
60 59 60 1
61 59 63 1
62 60 61 1
63 60 64 1
64 60 65 1
65 61 62 2
66 61 66 1
67 66 67 1
68 66 74 1
69 67 68 1
70 67 70 1
71 67 75 1
72 68 69 2
73 68 85 1
74 70 71 1
75 70 72 1
76 71 73 1
77 70 76 1
78 71 77 1
79 71 78 1
80 72 79 1
81 72 80 1
82 72 81 1
83 73 82 1
84 73 83 1
85 73 84 1
86 85 86 1
87 85 93 1
88 86 87 1
89 86 89 1
90 86 94 1
91 87 88 2
92 87 104 1
93 89 90 1
94 90 91 1
95 90 92 1
96 89 95 1
97 89 96 1
98 90 97 1
99 91 98 1
100 91 99 1
101 91 100 1
102 92 101 1
103 92 102 1
104 92 103 1
105 104 105 1
106 104 112 1
107 105 106 1
108 105 108 1
109 105 113 1
110 106 107 2
111 106 116 1
112 108 109 1
113 109 110 2
114 109 111 1
115 108 114 1
116 108 115 1
117 116 117 1
118 116 125 1
119 117 118 1
120 117 120 1
121 117 126 1
122 118 119 2
123 118 131 1
124 120 121 1
125 121 122 1
126 122 123 2
127 122 124 1
128 120 127 1
129 120 128 1
130 121 129 1
131 121 130 1
132 131 132 1
133 131 141 1
134 132 133 1
135 132 135 1
136 132 142 1
137 133 134 2
138 133 148 1
139 135 136 1
140 136 137 2
141 137 140 1
142 136 138 1
143 138 139 2
144 139 140 1
145 135 143 1
146 135 144 1
147 137 145 1
148 139 146 1
149 140 147 1
150 148 149 1
151 148 155 1
152 149 150 1
153 149 152 1
154 149 156 1
155 150 151 2
156 150 164 1
157 152 153 1
158 152 154 1
159 152 157 1
160 153 158 1
161 153 159 1
162 153 160 1
163 154 161 1
164 154 162 1
165 154 163 1
166 164 165 1
167 164 173 1
168 165 166 1
169 165 168 1
170 165 174 1
171 166 167 2
172 166 181 1
173 168 169 1
174 169 170 1
175 170 171 1
176 170 172 2
177 168 175 1
178 168 176 1
179 169 177 1
180 169 178 1
181 171 179 1
182 171 180 1
183 181 182 1
184 181 192 1
185 182 183 1
186 182 185 1
187 182 193 1
188 183 184 2
189 183 205 1
190 185 186 1
191 186 187 1
192 187 188 1
193 188 189 1
194 189 190 2
195 189 191 1
196 185 194 1
197 185 195 1
198 186 196 1
199 186 197 1
200 187 198 1
201 187 199 1
202 188 200 1
203 190 201 1
204 190 202 1
205 191 203 1
206 191 204 1
207 205 206 1
208 205 212 1
209 206 207 1
210 206 209 1
211 206 213 1
212 207 208 2
213 207 221 1
214 209 210 1
215 209 211 1
216 209 214 1
217 210 215 1
218 210 216 1
219 210 217 1
220 211 218 1
221 211 219 1
222 211 220 1
223 221 222 1
224 221 229 1
225 222 223 1
226 222 225 1
227 222 230 1
228 223 224 2
229 223 238 1
230 225 226 1
231 226 227 1
232 227 228 1
233 225 231 1
234 225 232 1
235 226 233 1
236 226 234 1
237 228 235 1
238 228 236 1
239 228 237 1
240 238 239 1
241 238 249 1
242 239 240 1
243 239 242 1
244 239 250 1
245 240 241 2
246 242 243 1
247 243 244 1
248 244 245 1
249 245 246 1
250 246 247 2
251 246 248 1
252 242 251 1
253 242 252 1
254 243 253 1
255 243 254 1
256 244 255 1
257 244 256 1
258 245 257 1
259 247 258 1
260 247 259 1
261 248 260 1
262 248 261 1
@<TRIPOS>SUBSTRUCTURE
1	GLU1	1	RESIDUE	1 ****	GLU
2	ASN2	16	RESIDUE	1 ****	ASN
3	PRO3	30	RESIDUE	1 ****	PRO
4	GLU4	44	RESIDUE	1 ****	GLU
5	GLY5	59	RESIDUE	1 ****	GLY
6	ILE6	66	RESIDUE	1 ****	ILE
7	LEU7	85	RESIDUE	1 ****	LEU
8	ASP8	104	RESIDUE	1 ****	ASP
9	GLU9	116	RESIDUE	1 ****	GLU
10	HIS10	131	RESIDUE	1 ****	HIS
11	VAL11	148	RESIDUE	1 ****	VAL
12	GLN12	164	RESIDUE	1 ****	GLN
13	ARG13	181	RESIDUE	1 ****	ARG
14	VAL14	205	RESIDUE	1 ****	VAL
15	MET15	221	RESIDUE	1 ****	MET
16	ARG16	238	RESIDUE	1 ****	ARG
