REMARK WARNING: 32 MAX_TORS EXCEEDED!!!
REMARK  67 active torsions:
REMARK  status: ('A' for Active; 'I' for Inactive)
REMARK    1  A    between atoms: N_1  and  CA_2 
REMARK    2  A    between atoms: CA_2  and  C_3 
REMARK    3  A    between atoms: CA_2  and  CB_5 
REMARK       I    between atoms: C_3  and  N_17 
REMARK    4  A    between atoms: CB_5  and  CG_6 
REMARK    5  A    between atoms: N_17  and  CA_18 
REMARK    6  A    between atoms: CA_18  and  C_19 
REMARK    7  A    between atoms: CA_18  and  CB_21 
REMARK       I    between atoms: C_19  and  N_28 
REMARK    8  A    between atoms: CB_21  and  CG_22 
REMARK       I    between atoms: CG_22  and  ND2_23 
REMARK    9  A    between atoms: CA_29  and  C_30 
REMARK       I    between atoms: C_30  and  N_35 
REMARK   10  A    between atoms: N_35  and  CA_36 
REMARK   11  A    between atoms: CA_36  and  C_37 
REMARK   12  A    between atoms: CA_36  and  CB_39 
REMARK       I    between atoms: C_37  and  N_45 
REMARK   13  A    between atoms: CB_39  and  CG_40 
REMARK   14  A    between atoms: CG_40  and  CD_41 
REMARK   15  A    between atoms: N_45  and  CA_46 
REMARK   16  A    between atoms: CA_46  and  C_47 
REMARK   17  A    between atoms: CA_46  and  CB_49 
REMARK       I    between atoms: C_47  and  N_53 
REMARK   18  A    between atoms: CB_49  and  OG_50 
REMARK   19  A    between atoms: N_53  and  CA_54 
REMARK   20  A    between atoms: CA_54  and  C_55 
REMARK   21  A    between atoms: CA_54  and  CB_57 
REMARK       I    between atoms: C_55  and  N_62 
REMARK   22  A    between atoms: CB_57  and  CG1_58 
REMARK   23  A    between atoms: N_62  and  CA_63 
REMARK   24  A    between atoms: CA_63  and  C_64 
REMARK   25  A    between atoms: CA_63  and  CB_66 
REMARK       I    between atoms: C_64  and  N_71 
REMARK   26  A    between atoms: CB_66  and  CG_67 
REMARK   27  A    between atoms: N_71  and  CA_72 
REMARK   28  A    between atoms: CA_72  and  C_73 
REMARK   29  A    between atoms: CA_72  and  CB_75 
REMARK       I    between atoms: C_73  and  N_80 
REMARK   30  A    between atoms: CB_75  and  CG_76 
REMARK   31  A    between atoms: N_80  and  CA_81 
REMARK   32  A    between atoms: CA_81  and  C_82 
REMARK   33  A    between atoms: CA_81  and  CB_84 
REMARK       I    between atoms: C_82  and  N_90 
REMARK   34  A    between atoms: CB_84  and  CG_85 
REMARK   35  A    between atoms: CG_85  and  CD_86 
REMARK   36  A    between atoms: N_90  and  CA_91 
REMARK   37  A    between atoms: CA_91  and  C_92 
REMARK   38  A    between atoms: CA_91  and  CB_94 
REMARK       I    between atoms: C_92  and  N_102 
REMARK   39  A    between atoms: CB_94  and  CG_95 
REMARK   40  A    between atoms: N_102  and  CA_103 
REMARK   41  A    between atoms: CA_103  and  C_104 
REMARK   42  A    between atoms: CA_103  and  CB_106 
REMARK       I    between atoms: C_104  and  N_110 
REMARK   43  A    between atoms: N_110  and  CA_111 
REMARK   44  A    between atoms: CA_111  and  C_112 
REMARK   45  A    between atoms: CA_111  and  CB_114 
REMARK       I    between atoms: C_112  and  N_122 
REMARK   46  A    between atoms: CB_114  and  CG_115 
REMARK   47  A    between atoms: CG_115  and  CD_116 
REMARK       I    between atoms: CD_116  and  NE2_117 
REMARK   48  A    between atoms: N_122  and  CA_123 
REMARK   49  A    between atoms: CA_123  and  C_124 
REMARK   50  A    between atoms: CA_123  and  CB_126 
REMARK       I    between atoms: C_124  and  N_139 
REMARK   51  A    between atoms: CB_126  and  CG_127 
REMARK   52  A    between atoms: CG_127  and  CD_128 
REMARK   53  A    between atoms: CD_128  and  NE_129 
REMARK       I    between atoms: NE_129  and  CZ_130 
REMARK       I    between atoms: CZ_130  and  NH1_131 
REMARK       I    between atoms: CZ_130  and  NH2_132 
REMARK   54  A    between atoms: N_139  and  CA_140 
REMARK   55  A    between atoms: CA_140  and  C_141 
REMARK   56  A    between atoms: CA_140  and  CB_143 
REMARK       I    between atoms: C_141  and  N_147 
REMARK   57  A    between atoms: N_147  and  CA_148 
REMARK   58  A    between atoms: CA_148  and  C_149 
REMARK   59  A    between atoms: CA_148  and  CB_151 
REMARK       I    between atoms: C_149  and  N_156 
REMARK   60  A    between atoms: CB_151  and  CG_152 
REMARK   61  A    between atoms: CG_152  and  SD_153 
REMARK   62  A    between atoms: N_156  and  CA_157 
REMARK   63  A    between atoms: CA_157  and  C_158 
REMARK   64  A    between atoms: CA_157  and  CB_160 
REMARK   65  A    between atoms: CB_160  and  CG_161 
REMARK   66  A    between atoms: CG_161  and  CD_162 
REMARK   67  A    between atoms: CD_162  and  NE_163 
REMARK       I    between atoms: NE_163  and  CZ_164 
REMARK       I    between atoms: CZ_164  and  NH1_165 
ROOT
ATOM      1  CA  GLU d   9      90.051  10.628 -57.424  0.00  0.00     0.177 C 
ENDROOT
BRANCH   1   2
ATOM      2  N   GLU d   9      88.747   9.972 -57.465  0.00  0.00    -0.346 N 
ATOM      3  C   ASP d   8      88.067   9.999 -58.561  0.00  0.00     0.241 C 
ATOM      4  O   ASP d   8      88.540  10.582 -59.549  0.00  0.00    -0.271 OA
ATOM      5  H   GLU d   9      88.383   9.503 -56.648  0.00  0.00     0.163 HD
BRANCH   3   6
ATOM      6  CA  ASP d   8      86.720   9.320 -58.603  0.00  0.00     0.186 C 
BRANCH   6   7
ATOM      7  N   ASP d   8      86.788   7.982 -58.021  0.00  0.00    -0.346 N 
ATOM      8  C   LEU d   7      87.624   7.130 -58.509  0.00  0.00     0.241 C 
ATOM      9  O   LEU d   7      88.345   7.471 -59.459  0.00  0.00    -0.271 OA
ATOM     10  H   ASP d   8      86.190   7.729 -57.247  0.00  0.00     0.163 HD
BRANCH   8  11
ATOM     11  CA  LEU d   7      87.695   5.747 -57.907  0.00  0.00     0.177 C 
BRANCH  11  12
ATOM     12  N   LEU d   7      87.750   5.815 -56.449  0.00  0.00    -0.346 N 
ATOM     13  C   ILE d   6      88.697   6.489 -55.890  0.00  0.00     0.241 C 
ATOM     14  O   ILE d   6      89.533   7.060 -56.607  0.00  0.00    -0.271 OA
ATOM     15  H   LEU d   7      87.058   5.340 -55.887  0.00  0.00     0.163 HD
BRANCH  13  16
ATOM     16  CA  ILE d   6      88.755   6.559 -54.384  0.00  0.00     0.180 C 
BRANCH  16  17
ATOM     17  N   ILE d   6      87.443   6.868 -53.824  0.00  0.00    -0.346 N 
ATOM     18  C   SER d   5      86.839   7.944 -54.201  0.00  0.00     0.243 C 
ATOM     19  O   SER d   5      87.387   8.679 -55.022  0.00  0.00    -0.271 OA
ATOM     20  H   ILE d   6      87.014   6.249 -53.151  0.00  0.00     0.163 HD
BRANCH  18  21
ATOM     21  CA  SER d   5      85.481   8.264 -53.622  0.00  0.00     0.200 C 
BRANCH  21  22
ATOM     22  N   SER d   5      84.610   7.093 -53.654  0.00  0.00    -0.344 N 
ATOM     23  C   GLU d   4      84.381   6.516 -54.785  0.00  0.00     0.241 C 
ATOM     24  O   GLU d   4      84.908   6.973 -55.810  0.00  0.00    -0.271 OA
ATOM     25  H   SER d   5      84.193   6.741 -52.805  0.00  0.00     0.163 HD
BRANCH  23  26
ATOM     26  CA  GLU d   4      83.480   5.305 -54.820  0.00  0.00     0.177 C 
BRANCH  26  27
ATOM     27  N   GLU d   4      83.839   4.356 -53.770  0.00  0.00    -0.346 N 
ATOM     28  C   PRO d   3      85.043   3.895 -53.728  0.00  0.00     0.241 C 
ATOM     29  O   PRO d   3      85.867   4.259 -54.568  0.00  0.00    -0.271 OA
ATOM     30  H   GLU d   4      83.155   4.065 -53.086  0.00  0.00     0.163 HD
BRANCH  28  31
ATOM     31  CA  PRO d   3      85.440   2.895 -52.629  0.00  0.00     0.179 C 
ATOM     32  N   PRO d   3      84.989   3.333 -51.317  0.00  0.00    -0.337 N 
ATOM     33  C   ASN d   2      85.513   4.341 -50.704  0.00  0.00     0.243 C 
ATOM     34  CD  PRO d   3      83.910   2.554 -50.750  0.00  0.00     0.127 C 
ATOM     35  O   ASN d   2      86.428   4.958 -51.247  0.00  0.00    -0.271 OA
ATOM     36  CG  PRO d   3      83.451   1.710 -51.942  0.00  0.00     0.022 C 
ATOM     37  CB  PRO d   3      84.734   1.538 -52.769  0.00  0.00     0.037 C 
BRANCH  33  38
ATOM     38  CA  ASN d   2      84.982   4.727 -49.344  0.00  0.00     0.185 C 
BRANCH  38  39
ATOM     39  N   ASN d   2      83.523   4.768 -49.344  0.00  0.00    -0.346 N 
ATOM     40  C   TRP d   1      82.920   5.537 -50.186  0.00  0.00     0.242 C 
ATOM     41  O   TRP d   1      83.591   6.213 -50.964  0.00  0.00    -0.271 OA
ATOM     42  H   ASN d   2      82.994   4.203 -48.695  0.00  0.00     0.163 HD
BRANCH  40  43
ATOM     43  CA  TRP d   1      81.410   5.580 -50.187  0.00  0.00     0.195 C 
BRANCH  43  44
ATOM     44  N   TRP d   1      80.848   4.233 -50.158  0.00  0.00    -0.326 NA
ATOM     45  H   TRP d   1      81.427   3.418 -50.140  0.00  0.00     0.180 HD
ENDBRANCH  43  44
BRANCH  43  46
ATOM     46  CB  TRP d   1      80.906   6.368 -48.946  0.00  0.00     0.077 C 
BRANCH  46  47
ATOM     47  CG  TRP d   1      79.400   6.647 -48.932  0.00  0.00    -0.028 A 
ATOM     48  CD2 TRP d   1      78.703   7.613 -49.628  0.00  0.00    -0.002 A 
ATOM     49  CE3 TRP d   1      79.139   8.641 -50.503  0.00  0.00     0.014 A 
ATOM     50  CE2 TRP d   1      77.323   7.427 -49.365  0.00  0.00     0.042 A 
ATOM     51  CZ3 TRP d   1      78.178   9.471 -51.080  0.00  0.00     0.001 A 
ATOM     52  CH2 TRP d   1      76.813   9.294 -50.815  0.00  0.00     0.002 A 
ATOM     53  CZ2 TRP d   1      76.369   8.276 -49.967  0.00  0.00     0.030 A 
ATOM     54  NE1 TRP d   1      77.126   6.353 -48.510  0.00  0.00    -0.365 N 
ATOM     55  CD1 TRP d   1      78.428   5.881 -48.256  0.00  0.00     0.096 A 
ATOM     56  1HE TRP d   1      76.234   5.965 -48.183  0.00  0.00     0.165 HD
ENDBRANCH  46  47
ENDBRANCH  43  46
ENDBRANCH  40  43
ENDBRANCH  38  39
BRANCH  38  57
ATOM     57  CB  ASN d   2      85.473   3.726 -48.258  0.00  0.00     0.137 C 
BRANCH  57  58
ATOM     58  CG  ASN d   2      85.011   3.982 -46.819  0.00  0.00     0.217 C 
ATOM     59  ND2 ASN d   2      85.607   4.911 -46.121  0.00  0.00    -0.370 N 
ATOM     60 21HD ASN d   2      85.127   5.104 -45.238  0.00  0.00     0.159 HD
ATOM     61 22HD ASN d   2      86.309   5.472 -46.603  0.00  0.00     0.159 HD
ATOM     62  OD1 ASN d   2      84.089   3.361 -46.311  0.00  0.00    -0.274 OA
ENDBRANCH  57  58
ENDBRANCH  38  57
ENDBRANCH  33  38
ENDBRANCH  28  31
ENDBRANCH  26  27
BRANCH  26  63
ATOM     63  CB  GLU d   4      81.993   5.730 -54.658  0.00  0.00     0.045 C 
BRANCH  63  64
ATOM     64  CG  GLU d   4      81.446   6.711 -55.745  0.00  0.00     0.116 C 
BRANCH  64  65
ATOM     65  CD  GLU d   4      80.020   7.213 -55.612  0.00  0.00     0.172 C 
ATOM     66  OE1 GLU d   4      79.293   6.836 -54.672  0.00  0.00    -0.648 OA
ATOM     67  OE2 GLU d   4      79.631   8.024 -56.478  0.00  0.00    -0.648 OA
ENDBRANCH  64  65
ENDBRANCH  63  64
ENDBRANCH  26  63
ENDBRANCH  23  26
ENDBRANCH  21  22
BRANCH  21  68
ATOM     68  CB  SER d   5      85.594   8.828 -52.183  0.00  0.00     0.199 C 
BRANCH  68  69
ATOM     69  OG  SER d   5      86.325   7.966 -51.303  0.00  0.00    -0.398 OA
ATOM     70  HG  SER d   5      85.835   7.143 -51.235  0.00  0.00     0.209 HD
ENDBRANCH  68  69
ENDBRANCH  21  68
ENDBRANCH  18  21
ENDBRANCH  16  17
BRANCH  16  71
ATOM     71  CB  ILE d   6      89.353   5.235 -53.755  0.00  0.00     0.013 C 
ATOM     72  CG2 ILE d   6      90.794   4.920 -54.264  0.00  0.00     0.012 C 
BRANCH  71  73
ATOM     73  CG1 ILE d   6      89.373   5.207 -52.193  0.00  0.00     0.002 C 
ATOM     74  CD1 ILE d   6      89.641   3.831 -51.548  0.00  0.00     0.005 C 
ENDBRANCH  71  73
ENDBRANCH  16  71
ENDBRANCH  13  16
ENDBRANCH  11  12
BRANCH  11  75
ATOM     75  CB  LEU d   7      86.490   4.878 -58.368  0.00  0.00     0.038 C 
BRANCH  75  76
ATOM     76  CG  LEU d   7      86.416   3.409 -57.869  0.00  0.00    -0.020 C 
ATOM     77  CD1 LEU d   7      85.225   2.691 -58.519  0.00  0.00     0.009 C 
ATOM     78  CD2 LEU d   7      87.708   2.622 -58.145  0.00  0.00     0.009 C 
ENDBRANCH  75  76
ENDBRANCH  11  75
ENDBRANCH   8  11
ENDBRANCH   6   7
BRANCH   6  79
ATOM     79  CB  ASP d   8      85.643  10.176 -57.879  0.00  0.00     0.147 C 
BRANCH  79  80
ATOM     80  CG  ASP d   8      85.426  11.585 -58.450  0.00  0.00     0.175 C 
ATOM     81  OD1 ASP d   8      85.490  11.757 -59.685  0.00  0.00    -0.648 OA
ATOM     82  OD2 ASP d   8      85.235  12.528 -57.655  0.00  0.00    -0.648 OA
ENDBRANCH  79  80
ENDBRANCH   6  79
ENDBRANCH   3   6
ENDBRANCH   1   2
BRANCH   1  83
ATOM     83  C   GLU d   9      90.968  10.076 -58.489  0.00  0.00     0.241 C 
ATOM     84  O   GLU d   9      91.633  10.814 -59.231  0.00  0.00    -0.271 OA
ATOM     85  N   HIS d  10      91.063   8.798 -58.631  0.00  0.00    -0.346 N 
ATOM     86  H   HIS d  10      90.531   8.176 -58.039  0.00  0.00     0.163 HD
BRANCH  85  87
ATOM     87  CA  HIS d  10      91.949   8.263 -59.660  0.00  0.00     0.182 C 
BRANCH  87  88
ATOM     88  C   HIS d  10      91.583   8.799 -61.023  0.00  0.00     0.241 C 
ATOM     89  O   HIS d  10      92.436   9.246 -61.805  0.00  0.00    -0.271 OA
ATOM     90  N   VAL d  11      90.345   8.792 -61.386  0.00  0.00    -0.346 N 
ATOM     91  H   VAL d  11      89.632   8.433 -60.767  0.00  0.00     0.163 HD
BRANCH  90  92
ATOM     92  CA  VAL d  11      89.990   9.310 -62.704  0.00  0.00     0.180 C 
BRANCH  92  93
ATOM     93  C   VAL d  11      90.456  10.737 -62.867  0.00  0.00     0.241 C 
ATOM     94  O   VAL d  11      91.057  11.119 -63.879  0.00  0.00    -0.271 OA
ATOM     95  N   GLN d  12      90.220  11.583 -61.923  0.00  0.00    -0.346 N 
ATOM     96  H   GLN d  12      89.731  11.296 -61.087  0.00  0.00     0.163 HD
BRANCH  95  97
ATOM     97  CA  GLN d  12      90.671  12.963 -62.080  0.00  0.00     0.177 C 
BRANCH  97  98
ATOM     98  C   GLN d  12      92.160  13.023 -62.319  0.00  0.00     0.241 C 
ATOM     99  O   GLN d  12      92.648  13.712 -63.213  0.00  0.00    -0.271 OA
ATOM    100  N   ARG d  13      92.944  12.331 -61.564  0.00  0.00    -0.346 N 
ATOM    101  H   ARG d  13      92.568  11.758 -60.823  0.00  0.00     0.163 HD
BRANCH 100 102
ATOM    102  CA  ARG d  13      94.385  12.390 -61.796  0.00  0.00     0.176 C 
BRANCH 102 103
ATOM    103  C   ARG d  13      94.720  11.988 -63.213  0.00  0.00     0.241 C 
ATOM    104  O   ARG d  13      95.489  12.644 -63.912  0.00  0.00    -0.271 OA
ATOM    105  N   VAL d  14      94.182  10.923 -63.704  0.00  0.00    -0.346 N 
ATOM    106  H   VAL d  14      93.547  10.367 -63.150  0.00  0.00     0.163 HD
BRANCH 105 107
ATOM    107  CA  VAL d  14      94.506  10.534 -65.074  0.00  0.00     0.180 C 
BRANCH 107 108
ATOM    108  C   VAL d  14      94.177  11.644 -66.044  0.00  0.00     0.241 C 
ATOM    109  O   VAL d  14      94.971  12.006 -66.921  0.00  0.00    -0.271 OA
ATOM    110  N   MET d  15      93.033  12.233 -65.954  0.00  0.00    -0.346 N 
ATOM    111  H   MET d  15      92.368  11.956 -65.246  0.00  0.00     0.163 HD
BRANCH 110 112
ATOM    112  CA  MET d  15      92.714  13.307 -66.891  0.00  0.00     0.177 C 
BRANCH 112 113
ATOM    113  C   MET d  15      93.746  14.407 -66.827  0.00  0.00     0.241 C 
ATOM    114  O   MET d  15      94.249  14.895 -67.851  0.00  0.00    -0.271 OA
ATOM    115  N   ARG d  16      94.115  14.852 -65.674  0.00  0.00    -0.347 N 
ATOM    116  H   ARG d  16      93.720  14.471 -64.827  0.00  0.00     0.163 HD
BRANCH 115 117
ATOM    117  CA  ARG d  16      95.113  15.916 -65.614  0.00  0.00     0.162 C 
BRANCH 117 118
ATOM    118  C   ARG d  16      96.383  15.507 -66.322  0.00  0.00     0.219 C 
ATOM    119  O   ARG d  16      96.495  14.418 -66.880  0.00  0.00    -0.287 OA
ENDBRANCH 117 118
BRANCH 117 120
ATOM    120  CB  ARG d  16      95.383  16.266 -64.123  0.00  0.00     0.035 C 
BRANCH 120 121
ATOM    121  CG  ARG d  16      96.210  17.560 -63.878  0.00  0.00     0.023 C 
BRANCH 121 122
ATOM    122  CD  ARG d  16      96.460  17.811 -62.382  0.00  0.00     0.138 C 
BRANCH 122 123
ATOM    123  NE  ARG d  16      97.238  19.073 -62.208  0.00  0.00    -0.227 N 
ATOM    124  CZ  ARG d  16      97.630  19.580 -61.043  0.00  0.00     0.665 C 
ATOM    125  NH1 ARG d  16      97.382  19.020 -59.892  0.00  0.00    -0.235 N 
ATOM    126  NH2 ARG d  16      98.296  20.692 -61.049  0.00  0.00    -0.235 N 
ATOM    127 11HH ARG d  16      96.856  18.146 -59.958  0.00  0.00     0.174 HD
ATOM    128 12HH ARG d  16      97.718  19.474 -59.041  0.00  0.00     0.174 HD
ATOM    129 21HH ARG d  16      98.482  21.115 -61.960  0.00  0.00     0.174 HD
ATOM    130 22HH ARG d  16      98.587  21.066 -60.144  0.00  0.00     0.174 HD
ATOM    131  HE  ARG d  16      97.517  19.636 -63.018  0.00  0.00     0.177 HD
ENDBRANCH 122 123
ENDBRANCH 121 122
ENDBRANCH 120 121
ENDBRANCH 117 120
ENDBRANCH 115 117
ENDBRANCH 112 113
BRANCH 112 132
ATOM    132  CB  MET d  15      91.294  13.860 -66.593  0.00  0.00     0.045 C 
BRANCH 132 133
ATOM    133  CG  MET d  15      90.130  12.860 -66.763  0.00  0.00     0.076 C 
BRANCH 133 134
ATOM    134  SD  MET d  15      88.557  13.730 -66.667  0.00  0.00    -0.173 SA
ATOM    135  CE  MET d  15      87.474  12.305 -66.500  0.00  0.00     0.089 C 
ENDBRANCH 133 134
ENDBRANCH 132 133
ENDBRANCH 112 132
ENDBRANCH 110 112
ENDBRANCH 107 108
BRANCH 107 136
ATOM    136  CB  VAL d  14      93.732   9.210 -65.452  0.00  0.00     0.009 C 
ATOM    137  CG1 VAL d  14      93.820   8.759 -66.936  0.00  0.00     0.012 C 
ATOM    138  CG2 VAL d  14      94.163   7.974 -64.625  0.00  0.00     0.012 C 
ENDBRANCH 107 136
ENDBRANCH 105 107
ENDBRANCH 102 103
BRANCH 102 139
ATOM    139  CB  ARG d  13      95.097  11.473 -60.763  0.00  0.00     0.036 C 
BRANCH 139 140
ATOM    140  CG  ARG d  13      96.642  11.626 -60.685  0.00  0.00     0.023 C 
BRANCH 140 141
ATOM    141  CD  ARG d  13      97.268  10.659 -59.667  0.00  0.00     0.138 C 
BRANCH 141 142
ATOM    142  NE  ARG d  13      98.746  10.865 -59.621  0.00  0.00    -0.227 N 
ATOM    143  CZ  ARG d  13      99.593  10.189 -58.851  0.00  0.00     0.665 C 
ATOM    144  NH1 ARG d  13      99.227   9.242 -58.033  0.00  0.00    -0.235 N 
ATOM    145  NH2 ARG d  13     100.853  10.485 -58.915  0.00  0.00    -0.235 N 
ATOM    146 11HH ARG d  13      98.222   9.057 -58.032  0.00  0.00     0.174 HD
ATOM    147 12HH ARG d  13      99.940   8.770 -57.475  0.00  0.00     0.174 HD
ATOM    148 21HH ARG d  13     101.121  11.229 -59.562  0.00  0.00     0.174 HD
ATOM    149 22HH ARG d  13     101.488   9.956 -58.315  0.00  0.00     0.174 HD
ATOM    150  HE  ARG d  13      99.198  11.574 -60.207  0.00  0.00     0.177 HD
ENDBRANCH 141 142
ENDBRANCH 140 141
ENDBRANCH 139 140
ENDBRANCH 102 139
ENDBRANCH 100 102
ENDBRANCH  97  98
BRANCH  97 151
ATOM    151  CB  GLN d  12      90.281  13.758 -60.814  0.00  0.00     0.044 C 
BRANCH 151 152
ATOM    152  CG  GLN d  12      90.643  15.280 -60.815  0.00  0.00     0.105 C 
BRANCH 152 153
ATOM    153  CD  GLN d  12      90.342  16.120 -59.568  0.00  0.00     0.215 C 
ATOM    154  NE2 GLN d  12      89.774  15.567 -58.527  0.00  0.00    -0.370 N 
ATOM    155 21HE GLN d  12      89.668  16.179 -57.717  0.00  0.00     0.159 HD
ATOM    156 22HE GLN d  12      89.610  14.562 -58.609  0.00  0.00     0.159 HD
ATOM    157  OE1 GLN d  12      90.645  17.302 -59.516  0.00  0.00    -0.274 OA
ENDBRANCH 152 153
ENDBRANCH 151 152
ENDBRANCH  97 151
ENDBRANCH  95  97
ENDBRANCH  92  93
BRANCH  92 158
ATOM    158  CB  VAL d  11      88.429   9.200 -62.921  0.00  0.00     0.009 C 
ATOM    159  CG1 VAL d  11      87.861   9.878 -64.198  0.00  0.00     0.012 C 
ATOM    160  CG2 VAL d  11      87.902   7.746 -62.962  0.00  0.00     0.012 C 
ENDBRANCH  92 158
ENDBRANCH  90  92
ENDBRANCH  87  88
BRANCH  87 161
ATOM    161  CB  HIS d  10      91.784   6.735 -59.623  0.00  0.00     0.095 C 
BRANCH 161 162
ATOM    162  CG  HIS d  10      93.068   6.030 -59.300  0.00  0.00     0.053 A 
ATOM    163  CD2 HIS d  10      93.449   5.722 -58.000  0.00  0.00     0.116 A 
ATOM    164  NE2 HIS d  10      94.663   5.087 -58.054  0.00  0.00    -0.359 N 
ATOM    165  CE1 HIS d  10      94.926   5.061 -59.389  0.00  0.00     0.207 A 
ATOM    166  2HE HIS d  10      95.230   4.726 -57.273  0.00  0.00     0.166 HD
ATOM    167  ND1 HIS d  10      94.020   5.603 -60.223  0.00  0.00    -0.247 NA
ENDBRANCH 161 162
ENDBRANCH  87 161
ENDBRANCH  85  87
ENDBRANCH   1  83
BRANCH   1 168
ATOM    168  CB  GLU d   9      90.685  10.450 -56.015  0.00  0.00     0.045 C 
BRANCH 168 169
ATOM    169  CG  GLU d   9      92.068  11.145 -55.801  0.00  0.00     0.116 C 
BRANCH 169 170
ATOM    170  CD  GLU d   9      92.770  10.960 -54.469  0.00  0.00     0.172 C 
ATOM    171  OE1 GLU d   9      92.248  10.289 -53.558  0.00  0.00    -0.648 OA
ATOM    172  OE2 GLU d   9      93.890  11.499 -54.349  0.00  0.00    -0.648 OA
ENDBRANCH 169 170
ENDBRANCH 168 169
ENDBRANCH   1 168
TORSDOF 67
