@<TRIPOS>MOLECULE
11-18
264 265 16              
SMALL
USER_CHARGES
@<TRIPOS>ATOM
1	   N	1821.152	546.924	-1866.675	N.3	1	GLU1	-0.516	
2	  CA	1821.711	548.273	-1866.675	C.3	1	GLU1	0.040	
3	   C	1823.220	548.233	-1866.675	C.2	1	GLU1	0.537	
4	   O	1823.896	548.932	-1867.444	O.2	1	GLU1	-0.582	
5	  CB	1821.188	549.058	-1865.438	C.3	1	GLU1	0.056	
6	  CG	1821.663	550.543	-1865.327	C.3	1	GLU1	0.014	
7	  CD	1821.239	551.347	-1864.112	C.2	1	GLU1	0.805	
8	 OE1	1820.511	550.845	-1863.234	O.co2	1	GLU1	-0.819	
9	 OE2	1821.669	552.517	-1864.040	O.co2	1	GLU1	-0.819	
10	   H	1821.779	546.045	-1866.675	 H	1	GLU1	0.294	
11	  HA	1821.385	548.791	-1867.595	 H	1	GLU1	0.111	
12	 2HB	1821.477	548.527	-1864.508	 H	1	GLU1	-0.017	
13	 3HB	1820.081	549.048	-1865.425	 H	1	GLU1	-0.017	
14	 2HG	1821.353	551.128	-1866.208	 H	1	GLU1	-0.043	
15	 3HG	1822.763	550.610	-1865.298	 H	1	GLU1	-0.043	
16	   N	1823.825	547.447	-1865.850	N.am	2	ASN2	-0.416	
17	  CA	1825.284	547.408	-1865.850	C.3	2	ASN2	0.014	
18	   C	1825.815	547.053	-1867.219	C.2	2	ASN2	0.597	
19	   O	1826.730	547.683	-1867.747	O.2	2	ASN2	-0.568	
20	  CB	1825.776	546.385	-1864.786	C.3	2	ASN2	-0.204	
21	  CG	1825.313	546.609	-1863.342	C.2	2	ASN2	0.713	
22	 ND2	1825.907	547.524	-1862.624	N.pl3	2	ASN2	-0.919	
23	 OD1	1824.392	545.975	-1862.848	O.2	2	ASN2	-0.593	
24	   H	1823.296	546.867	-1865.214	 H	2	ASN2	0.272	
25	  HA	1825.661	548.418	-1865.605	 H	2	ASN2	0.105	
26	 2HB	1826.880	546.326	-1864.789	 H	2	ASN2	0.080	
27	 3HB	1825.447	545.367	-1865.072	 H	2	ASN2	0.080	
28	1HD2	1825.426	547.697	-1861.738	 H	2	ASN2	0.420	
29	2HD2	1826.609	548.096	-1863.093	 H	2	ASN2	0.420	
30	   N	1825.293	546.058	-1867.853	N.am	3	PRO3	-0.255	
31	  CA	1825.745	545.648	-1869.174	C.3	3	PRO3	-0.027	
32	   C	1825.347	546.672	-1870.251	C.2	3	PRO3	0.590	
33	   O	1826.171	547.055	-1871.083	O.2	3	PRO3	-0.575	
34	  CB	1825.041	544.294	-1869.344	C.3	3	PRO3	-0.007	
35	  CG	1823.758	544.446	-1868.513	C.3	3	PRO3	0.019	
36	  CD	1824.216	545.265	-1867.303	C.3	3	PRO3	0.019	
37	  HA	1826.831	545.529	-1869.188	 H	3	PRO3	0.064	
38	 2HB	1825.664	543.512	-1868.903	 H	3	PRO3	0.025	
39	 3HB	1824.843	544.045	-1870.389	 H	3	PRO3	0.025	
40	 2HG	1823.330	543.484	-1868.222	 H	3	PRO3	0.021	
41	 3HG	1823.020	545.017	-1869.081	 H	3	PRO3	0.021	
42	 2HD	1824.605	544.615	-1866.516	 H	3	PRO3	0.039	
43	 3HD	1823.419	545.901	-1866.910	 H	3	PRO3	0.039	
44	   N	1824.142	547.132	-1870.283	N.am	4	GLU4	-0.516	
45	  CA	1823.783	548.103	-1871.313	C.3	4	GLU4	0.040	
46	   C	1824.682	549.314	-1871.252	C.2	4	GLU4	0.537	
47	   O	1825.208	549.794	-1872.266	O.2	4	GLU4	-0.582	
48	  CB	1822.294	548.522	-1871.143	C.3	4	GLU4	0.056	
49	  CG	1821.746	549.525	-1872.208	C.3	4	GLU4	0.014	
50	  CD	1820.320	550.022	-1872.065	C.2	4	GLU4	0.805	
51	 OE1	1819.593	549.624	-1871.134	O.co2	4	GLU4	-0.819	
52	 OE2	1819.930	550.851	-1872.913	O.co2	4	GLU4	-0.819	
53	   H	1823.458	546.825	-1869.607	 H	4	GLU4	0.294	
54	  HA	1823.914	547.633	-1872.304	 H	4	GLU4	0.111	
55	 2HB	1822.142	548.962	-1870.136	 H	4	GLU4	-0.017	
56	 3HB	1821.646	547.624	-1871.149	 H	4	GLU4	-0.017	
57	 2HG	1821.828	549.111	-1873.226	 H	4	GLU4	-0.043	
58	 3HG	1822.334	550.458	-1872.219	 H	4	GLU4	-0.043	
59	   N	1824.909	549.867	-1870.109	N.am	5	SER5	-0.416	
60	  CA	1825.779	551.038	-1870.050	C.3	5	SER5	-0.025	
61	   C	1827.138	550.732	-1870.636	C.2	5	SER5	0.597	
62	   O	1827.685	551.486	-1871.441	O.2	5	SER5	-0.568	
63	  CB	1825.890	551.570	-1868.600	C.3	5	SER5	0.212	
64	  OG	1826.622	550.691	-1867.739	O.3	5	SER5	-0.655	
65	   H	1824.492	549.495	-1869.267	 H	5	SER5	0.272	
66	  HA	1825.329	551.828	-1870.680	 H	5	SER5	0.084	
67	 2HB	1824.890	551.764	-1868.167	 H	5	SER5	0.035	
68	 3HB	1826.395	552.556	-1868.602	 H	5	SER5	0.035	
69	  HG	1826.133	549.866	-1867.688	 H	5	SER5	0.428	
70	   N	1827.742	549.649	-1870.282	N.am	6	ILE6	-0.416	
71	  CA	1829.056	549.355	-1870.848	C.3	6	ILE6	-0.060	
72	   C	1828.998	549.317	-1872.356	C.2	6	ILE6	0.597	
73	   O	1829.833	549.905	-1873.060	O.2	6	ILE6	-0.568	
74	  CB	1829.655	548.018	-1870.248	C.3	6	ILE6	0.130	
75	 CG1	1829.675	547.956	-1868.687	C.3	6	ILE6	-0.043	
76	 CG2	1831.097	547.717	-1870.763	C.3	6	ILE6	-0.320	
77	 CD1	1829.945	546.567	-1868.072	C.3	6	ILE6	-0.066	
78	   H	1827.314	549.015	-1869.623	 H	6	ILE6	0.272	
79	  HA	1829.729	550.189	-1870.580	 H	6	ILE6	0.087	
80	  HB	1828.998	547.193	-1870.592	 H	6	ILE6	0.019	
81	2HG1	1828.693	548.276	-1868.291	 H	6	ILE6	0.024	
82	3HG1	1830.391	548.699	-1868.282	 H	6	ILE6	0.024	
83	1HG2	1831.155	547.624	-1871.862	 H	6	ILE6	0.088	
84	2HG2	1831.819	548.499	-1870.461	 H	6	ILE6	0.088	
85	3HG2	1831.487	546.755	-1870.385	 H	6	ILE6	0.088	
86	1HD1	1829.217	545.813	-1868.427	 H	6	ILE6	0.019	
87	2HD1	1830.956	546.189	-1868.308	 H	6	ILE6	0.019	
88	3HD1	1829.869	546.597	-1866.969	 H	6	ILE6	0.019	
89	   N	1828.053	548.654	-1872.929	N.am	7	LEU7	-0.416	
90	  CA	1827.998	548.618	-1874.388	C.3	7	LEU7	-0.052	
91	   C	1827.925	550.013	-1874.960	C.2	7	LEU7	0.597	
92	   O	1828.646	550.376	-1875.902	O.2	7	LEU7	-0.568	
93	  CB	1826.795	547.757	-1874.868	C.3	7	LEU7	-0.110	
94	  CG	1826.722	546.278	-1874.402	C.3	7	LEU7	0.353	
95	 CD1	1825.532	545.572	-1875.067	C.3	7	LEU7	-0.412	
96	 CD2	1828.016	545.499	-1874.693	C.3	7	LEU7	-0.412	
97	   H	1827.361	548.166	-1872.378	 H	7	LEU7	0.272	
98	  HA	1828.940	548.178	-1874.762	 H	7	LEU7	0.092	
99	 2HB	1826.771	547.773	-1875.976	 H	7	LEU7	0.046	
100	 3HB	1825.855	548.260	-1874.564	 H	7	LEU7	0.046	
101	  HG	1826.552	546.270	-1873.305	 H	7	LEU7	-0.036	
102	1HD1	1824.575	546.081	-1874.845	 H	7	LEU7	0.100	
103	2HD1	1825.632	545.531	-1876.169	 H	7	LEU7	0.100	
104	3HD1	1825.426	544.531	-1874.711	 H	7	LEU7	0.100	
105	1HD2	1828.291	545.529	-1875.763	 H	7	LEU7	0.100	
106	2HD2	1828.869	545.911	-1874.122	 H	7	LEU7	0.100	
107	3HD2	1827.935	544.436	-1874.397	 H	7	LEU7	0.100	
108	   N	1827.088	550.853	-1874.454	N.am	8	ASP8	-0.516	
109	  CA	1827.017	552.203	-1875.007	C.3	8	ASP8	0.038	
110	   C	1828.363	552.883	-1874.950	C.2	8	ASP8	0.537	
111	   O	1828.836	553.488	-1875.924	O.2	8	ASP8	-0.582	
112	  CB	1825.939	553.041	-1874.266	C.3	8	ASP8	-0.030	
113	  CG	1825.720	554.462	-1874.806	C.2	8	ASP8	0.799	
114	 OD1	1825.784	554.661	-1876.036	O.co2	8	ASP8	-0.801	
115	 OD2	1825.527	555.388	-1873.990	O.co2	8	ASP8	-0.801	
116	   H	1826.490	550.582	-1873.687	 H	8	ASP8	0.294	
117	  HA	1826.734	552.125	-1876.074	 H	8	ASP8	0.088	
118	 2HB	1826.196	553.125	-1873.193	 H	8	ASP8	-0.012	
119	 3HB	1824.960	552.536	-1874.298	 H	8	ASP8	-0.012	
120	   N	1829.043	552.833	-1873.855	N.am	9	GLU9	-0.516	
121	  CA	1830.346	553.491	-1873.799	C.3	9	GLU9	0.040	
122	   C	1831.264	552.964	-1874.875	C.2	9	GLU9	0.537	
123	   O	1831.928	553.719	-1875.600	O.2	9	GLU9	-0.582	
124	  CB	1830.979	553.283	-1872.393	C.3	9	GLU9	0.056	
125	  CG	1832.361	553.976	-1872.164	C.3	9	GLU9	0.014	
126	  CD	1833.063	553.762	-1870.836	C.2	9	GLU9	0.805	
127	 OE1	1832.542	553.071	-1869.940	O.co2	9	GLU9	-0.819	
128	 OE2	1834.182	554.301	-1870.703	O.co2	9	GLU9	-0.819	
129	   H	1828.680	552.346	-1873.048	 H	9	GLU9	0.294	
130	  HA	1830.203	554.573	-1873.974	 H	9	GLU9	0.111	
131	 2HB	1831.092	552.198	-1872.191	 H	9	GLU9	-0.017	
132	 3HB	1830.282	553.636	-1871.609	 H	9	GLU9	-0.017	
133	 2HG	1832.289	555.067	-1872.303	 H	9	GLU9	-0.043	
134	 3HG	1833.108	553.631	-1872.898	 H	9	GLU9	-0.043	
135	   N	1831.361	551.689	-1875.045	N.am	10	HIS10	-0.416	
136	  CA	1832.250	551.178	-1876.085	C.3	10	HIS10	-0.058	
137	   C	1831.883	551.743	-1877.436	C.2	10	HIS10	0.597	
138	   O	1832.735	552.208	-1878.208	O.2	10	HIS10	-0.568	
139	  CB	1832.086	549.649	-1876.081	C.3	10	HIS10	-0.007	
140	  CG	1833.372	548.939	-1875.773	C.2	10	HIS10	0.187	
141	 CD2	1833.753	548.604	-1874.480	C.2	10	HIS10	-0.221	
142	 ND1	1834.325	548.534	-1876.705	N.2	10	HIS10	-0.543	
143	 CE1	1835.231	547.976	-1875.882	C.2	10	HIS10	0.163	
144	 NE2	1834.968	547.973	-1874.547	N.pl3	10	HIS10	-0.280	
145	   H	1830.831	551.053	-1874.466	 H	10	HIS10	0.272	
146	  HA	1833.268	551.536	-1875.860	 H	10	HIS10	0.136	
147	 2HB	1831.721	549.282	-1877.061	 H	10	HIS10	0.037	
148	 3HB	1831.331	549.311	-1875.341	 H	10	HIS10	0.037	
149	 2HD	1833.167	548.818	-1873.591	 H	10	HIS10	0.186	
150	 1HE	1836.122	547.556	-1876.329	 H	10	HIS10	0.144	
151	 2HE	1835.535	547.596	-1873.774	 H	10	HIS10	0.334	
152	   N	1830.645	551.742	-1877.799	N.am	11	GLU11	-0.516	
153	  CA	1830.290	552.288	-1879.106	C.3	11	GLU11	0.040	
154	   C	1830.753	553.719	-1879.238	C.2	11	GLU11	0.537	
155	   O	1831.355	554.124	-1880.243	O.2	11	GLU11	-0.582	
156	  CB	1828.751	552.194	-1879.314	C.3	11	GLU11	0.056	
157	  CG	1828.221	552.697	-1880.696	C.3	11	GLU11	0.014	
158	  CD	1826.724	552.690	-1880.940	C.2	11	GLU11	0.805	
159	 OE1	1825.935	552.272	-1880.071	O.co2	11	GLU11	-0.819	
160	 OE2	1826.336	553.135	-1882.041	O.co2	11	GLU11	-0.819	
161	   H	1829.932	551.368	-1877.189	 H	11	GLU11	0.294	
162	  HA	1830.796	551.693	-1879.888	 H	11	GLU11	0.111	
163	 2HB	1828.229	552.756	-1878.512	 H	11	GLU11	-0.017	
164	 3HB	1828.415	551.148	-1879.176	 H	11	GLU11	-0.017	
165	 2HG	1828.672	552.131	-1881.526	 H	11	GLU11	-0.043	
166	 3HG	1828.496	553.750	-1880.870	 H	11	GLU11	-0.043	
167	   N	1830.515	554.544	-1878.276	N.am	12	GLN12	-0.416	
168	  CA	1830.963	555.927	-1878.403	C.3	12	GLN12	-0.003	
169	   C	1832.453	555.996	-1878.641	C.2	12	GLN12	0.597	
170	   O	1832.940	556.704	-1879.519	O.2	12	GLN12	-0.568	
171	  CB	1830.572	556.695	-1877.120	C.3	12	GLN12	-0.004	
172	  CG	1830.931	558.217	-1877.089	C.3	12	GLN12	-0.064	
173	  CD	1830.628	559.030	-1875.824	C.2	12	GLN12	0.695	
174	 NE2	1830.061	558.453	-1874.796	N.pl3	12	GLN12	-0.941	
175	 OE1	1830.929	560.211	-1875.747	O.2	12	GLN12	-0.609	
176	   H	1830.027	554.238	-1877.447	 H	12	GLN12	0.272	
177	  HA	1830.464	556.383	-1879.278	 H	12	GLN12	0.085	
178	 2HB	1831.048	556.195	-1876.251	 H	12	GLN12	0.017	
179	 3HB	1829.481	556.587	-1876.957	 H	12	GLN12	0.017	
180	 2HG	1830.453	558.737	-1877.940	 H	12	GLN12	0.035	
181	 3HG	1832.014	558.359	-1877.255	 H	12	GLN12	0.035	
182	1HE2	1829.954	559.048	-1873.972	 H	12	GLN12	0.425	
183	2HE2	1829.898	557.449	-1874.899	 H	12	GLN12	0.425	
184	   N	1833.238	555.289	-1877.900	N.am	13	ARG13	-0.348	
185	  CA	1834.678	555.356	-1878.130	C.3	13	ARG13	-0.264	
186	   C	1835.015	554.985	-1879.556	C.2	13	ARG13	0.734	
187	   O	1835.783	555.658	-1880.239	O.2	13	ARG13	-0.589	
188	  CB	1835.392	554.417	-1877.117	C.3	13	ARG13	-0.001	
189	  CG	1836.937	554.571	-1877.036	C.3	13	ARG13	0.039	
190	  CD	1837.564	553.584	-1876.038	C.3	13	ARG13	0.049	
191	  NE	1839.042	553.792	-1875.987	N.pl3	13	ARG13	-0.530	
192	  CZ	1839.890	553.101	-1875.232	C.cat	13	ARG13	0.808	
193	 NH1	1839.525	552.136	-1874.435	N.pl3	13	ARG13	-0.863	
194	 NH2	1841.149	553.401	-1875.289	N.pl3	13	ARG13	-0.863	
195	   H	1832.862	554.699	-1877.172	 H	13	ARG13	0.275	
196	  HA	1835.002	556.402	-1877.972	 H	13	ARG13	0.156	
197	 2HB	1835.126	553.367	-1877.356	 H	13	ARG13	0.033	
198	 3HB	1834.967	554.583	-1876.106	 H	13	ARG13	0.033	
199	 2HG	1837.184	555.616	-1876.756	 H	13	ARG13	0.029	
200	 3HG	1837.388	554.416	-1878.037	 H	13	ARG13	0.029	
201	 2HD	1837.321	552.544	-1876.347	 H	13	ARG13	0.069	
202	 3HD	1837.108	553.729	-1875.035	 H	13	ARG13	0.069	
203	  HE	1839.492	554.515	-1876.558	 H	13	ARG13	0.346	
204	1HH1	1838.520	551.949	-1874.438	 H	13	ARG13	0.448	
205	2HH1	1840.239	551.653	-1873.886	 H	13	ARG13	0.448	
206	1HH2	1841.416	554.159	-1875.920	 H	13	ARG13	0.448	
207	2HH2	1841.785	552.859	-1874.700	 H	13	ARG13	0.448	
208	   N	1834.479	553.930	-1880.070	N.am	14	VAL14	-0.416	
209	  CA	1834.805	553.572	-1881.448	C.3	14	VAL14	-0.087	
210	   C	1834.474	554.702	-1882.393	C.2	14	VAL14	0.597	
211	   O	1835.267	555.084	-1883.263	O.2	14	VAL14	-0.568	
212	  CB	1834.033	552.254	-1881.855	C.3	14	VAL14	0.299	
213	 CG1	1834.123	551.837	-1883.349	C.3	14	VAL14	-0.319	
214	 CG2	1834.466	551.002	-1881.055	C.3	14	VAL14	-0.319	
215	   H	1833.845	553.361	-1879.529	 H	14	VAL14	0.272	
216	  HA	1835.893	553.396	-1881.523	 H	14	VAL14	0.097	
217	  HB	1832.957	552.425	-1881.639	 H	14	VAL14	-0.030	
218	1HG1	1835.164	551.660	-1883.678	 H	14	VAL14	0.079	
219	2HG1	1833.550	550.913	-1883.562	 H	14	VAL14	0.079	
220	3HG1	1833.693	552.599	-1884.027	 H	14	VAL14	0.079	
221	1HG2	1834.378	551.160	-1879.965	 H	14	VAL14	0.079	
222	2HG2	1833.830	550.125	-1881.288	 H	14	VAL14	0.079	
223	3HG2	1835.514	550.713	-1881.261	 H	14	VAL14	0.079	
224	   N	1833.329	555.287	-1882.292	N.am	15	MET15	-0.416	
225	  CA	1833.008	556.380	-1883.205	C.3	15	MET15	-0.024	
226	   C	1834.038	557.480	-1883.117	C.2	15	MET15	0.597	
227	   O	1834.540	557.991	-1884.129	O.2	15	MET15	-0.568	
228	  CB	1831.586	556.925	-1882.896	C.3	15	MET15	0.034	
229	  CG	1830.425	555.926	-1883.088	C.3	15	MET15	0.002	
230	  SD	1828.851	556.792	-1882.974	S.3	15	MET15	-0.274	
231	  CE	1827.770	555.361	-1882.838	C.3	15	MET15	-0.054	
232	   H	1832.664	554.994	-1881.590	 H	15	MET15	0.272	
233	  HA	1833.034	555.993	-1884.241	 H	15	MET15	0.088	
234	 2HB	1831.384	557.804	-1883.538	 H	15	MET15	0.024	
235	 3HB	1831.551	557.317	-1881.860	 H	15	MET15	0.024	
236	 2HG	1830.468	555.140	-1882.310	 H	15	MET15	0.044	
237	 3HG	1830.488	555.411	-1884.064	 H	15	MET15	0.044	
238	 1HE	1827.914	554.673	-1883.690	 H	15	MET15	0.068	
239	 2HE	1827.979	554.809	-1881.905	 H	15	MET15	0.068	
240	 3HE	1826.712	555.676	-1882.821	 H	15	MET15	0.068	
241	   N	1834.406	557.901	-1881.954	N.am	16	ARG16	-0.348	
242	  CA	1835.402	558.965	-1881.870	C.3	16	ARG16	-0.264	
243	   C	1836.673	558.573	-1882.587	C.2	16	ARG16	0.734	
244	   O	1836.788	557.497	-1883.168	O.2	16	ARG16	-0.589	
245	  CB	1835.671	559.283	-1880.372	C.3	16	ARG16	-0.001	
246	  CG	1836.496	560.572	-1880.099	C.3	16	ARG16	0.039	
247	  CD	1836.745	560.792	-1878.598	C.3	16	ARG16	0.049	
248	  NE	1837.521	562.051	-1878.396	N.pl3	16	ARG16	-0.530	
249	  CZ	1837.912	562.533	-1877.220	C.cat	16	ARG16	0.808	
250	 NH1	1837.664	561.948	-1876.082	N.pl3	16	ARG16	-0.863	
251	 NH2	1838.575	563.646	-1877.202	N.pl3	16	ARG16	-0.863	
252	   H	1834.012	557.501	-1881.115	 H	16	ARG16	0.275	
253	  HA	1834.993	559.858	-1882.380	 H	16	ARG16	0.156	
254	 2HB	1836.168	558.407	-1879.906	 H	16	ARG16	0.033	
255	 3HB	1834.702	559.364	-1879.838	 H	16	ARG16	0.033	
256	 2HG	1835.965	561.443	-1880.536	 H	16	ARG16	0.029	
257	 3HG	1837.469	560.520	-1880.628	 H	16	ARG16	0.029	
258	 2HD	1837.294	559.917	-1878.184	 H	16	ARG16	0.069	
259	 3HD	1835.772	560.834	-1878.062	 H	16	ARG16	0.069	
260	  HE	1837.799	562.632	-1879.193	 H	16	ARG16	0.346	
261	1HH1	1837.139	561.075	-1876.167	 H	16	ARG16	0.448	
262	2HH1	1837.998	562.384	-1875.221	 H	16	ARG16	0.448	
263	1HH2	1838.760	564.089	-1878.103	 H	16	ARG16	0.448	
264	2HH2	1838.865	564.001	-1876.289	 H	16	ARG16	0.448	
@<TRIPOS>BOND
1 1 2 1
2 1 10 1
3 2 3 1
4 2 5 1
5 2 11 1
6 3 4 2
7 3 16 1
8 5 6 1
9 6 7 1
10 7 8 2
11 7 9 1
12 5 12 1
13 5 13 1
14 6 14 1
15 6 15 1
16 16 17 1
17 16 24 1
18 17 18 1
19 17 20 1
20 17 25 1
21 18 19 2
22 18 30 1
23 20 21 1
24 21 22 1
25 21 23 2
26 20 26 1
27 20 27 1
28 22 28 1
29 22 29 1
30 30 31 1
31 30 36 1
32 31 32 1
33 31 34 1
34 31 37 1
35 32 33 2
36 32 44 1
37 34 35 1
38 35 36 1
39 34 38 1
40 34 39 1
41 35 40 1
42 35 41 1
43 36 42 1
44 36 43 1
45 44 45 1
46 44 53 1
47 45 46 1
48 45 48 1
49 45 54 1
50 46 47 2
51 46 59 1
52 48 49 1
53 49 50 1
54 50 51 2
55 50 52 1
56 48 55 1
57 48 56 1
58 49 57 1
59 49 58 1
60 59 60 1
61 59 65 1
62 60 61 1
63 60 63 1
64 60 66 1
65 61 62 2
66 61 70 1
67 63 64 1
68 63 67 1
69 63 68 1
70 64 69 1
71 70 71 1
72 70 78 1
73 71 72 1
74 71 74 1
75 71 79 1
76 72 73 2
77 72 89 1
78 74 75 1
79 74 76 1
80 75 77 1
81 74 80 1
82 75 81 1
83 75 82 1
84 76 83 1
85 76 84 1
86 76 85 1
87 77 86 1
88 77 87 1
89 77 88 1
90 89 90 1
91 89 97 1
92 90 91 1
93 90 93 1
94 90 98 1
95 91 92 2
96 91 108 1
97 93 94 1
98 94 95 1
99 94 96 1
100 93 99 1
101 93 100 1
102 94 101 1
103 95 102 1
104 95 103 1
105 95 104 1
106 96 105 1
107 96 106 1
108 96 107 1
109 108 109 1
110 108 116 1
111 109 110 1
112 109 112 1
113 109 117 1
114 110 111 2
115 110 120 1
116 112 113 1
117 113 114 2
118 113 115 1
119 112 118 1
120 112 119 1
121 120 121 1
122 120 129 1
123 121 122 1
124 121 124 1
125 121 130 1
126 122 123 2
127 122 135 1
128 124 125 1
129 125 126 1
130 126 127 2
131 126 128 1
132 124 131 1
133 124 132 1
134 125 133 1
135 125 134 1
136 135 136 1
137 135 145 1
138 136 137 1
139 136 139 1
140 136 146 1
141 137 138 2
142 137 152 1
143 139 140 1
144 140 141 2
145 141 144 1
146 140 142 1
147 142 143 2
148 143 144 1
149 139 147 1
150 139 148 1
151 141 149 1
152 143 150 1
153 144 151 1
154 152 153 1
155 152 161 1
156 153 154 1
157 153 156 1
158 153 162 1
159 154 155 2
160 154 167 1
161 156 157 1
162 157 158 1
163 158 159 2
164 158 160 1
165 156 163 1
166 156 164 1
167 157 165 1
168 157 166 1
169 167 168 1
170 167 176 1
171 168 169 1
172 168 171 1
173 168 177 1
174 169 170 2
175 169 184 1
176 171 172 1
177 172 173 1
178 173 174 1
179 173 175 2
180 171 178 1
181 171 179 1
182 172 180 1
183 172 181 1
184 174 182 1
185 174 183 1
186 184 185 1
187 184 195 1
188 185 186 1
189 185 188 1
190 185 196 1
191 186 187 2
192 186 208 1
193 188 189 1
194 189 190 1
195 190 191 1
196 191 192 1
197 192 193 2
198 192 194 1
199 188 197 1
200 188 198 1
201 189 199 1
202 189 200 1
203 190 201 1
204 190 202 1
205 191 203 1
206 193 204 1
207 193 205 1
208 194 206 1
209 194 207 1
210 208 209 1
211 208 215 1
212 209 210 1
213 209 212 1
214 209 216 1
215 210 211 2
216 210 224 1
217 212 213 1
218 212 214 1
219 212 217 1
220 213 218 1
221 213 219 1
222 213 220 1
223 214 221 1
224 214 222 1
225 214 223 1
226 224 225 1
227 224 232 1
228 225 226 1
229 225 228 1
230 225 233 1
231 226 227 2
232 226 241 1
233 228 229 1
234 229 230 1
235 230 231 1
236 228 234 1
237 228 235 1
238 229 236 1
239 229 237 1
240 231 238 1
241 231 239 1
242 231 240 1
243 241 242 1
244 241 252 1
245 242 243 1
246 242 245 1
247 242 253 1
248 243 244 2
249 245 246 1
250 246 247 1
251 247 248 1
252 248 249 1
253 249 250 2
254 249 251 1
255 245 254 1
256 245 255 1
257 246 256 1
258 246 257 1
259 247 258 1
260 247 259 1
261 248 260 1
262 250 261 1
263 250 262 1
264 251 263 1
265 251 264 1
@<TRIPOS>SUBSTRUCTURE
1	GLU1	1	RESIDUE	1 ****	GLU
2	ASN2	16	RESIDUE	1 ****	ASN
3	PRO3	30	RESIDUE	1 ****	PRO
4	GLU4	44	RESIDUE	1 ****	GLU
5	SER5	59	RESIDUE	1 ****	SER
6	ILE6	70	RESIDUE	1 ****	ILE
7	LEU7	89	RESIDUE	1 ****	LEU
8	ASP8	108	RESIDUE	1 ****	ASP
9	GLU9	120	RESIDUE	1 ****	GLU
10	HIS10	135	RESIDUE	1 ****	HIS
11	GLU11	152	RESIDUE	1 ****	GLU
12	GLN12	167	RESIDUE	1 ****	GLN
13	ARG13	184	RESIDUE	1 ****	ARG
14	VAL14	208	RESIDUE	1 ****	VAL
15	MET15	224	RESIDUE	1 ****	MET
16	ARG16	241	RESIDUE	1 ****	ARG
