REMARK WARNING: 32 MAX_TORS EXCEEDED!!!
REMARK  71 active torsions:
REMARK  status: ('A' for Active; 'I' for Inactive)
REMARK    1  A    between atoms: N_1  and  CA_2 
REMARK    2  A    between atoms: CA_2  and  C_3 
REMARK    3  A    between atoms: CA_2  and  CB_5 
REMARK       I    between atoms: C_3  and  N_11 
REMARK    4  A    between atoms: CB_5  and  CG_6 
REMARK    5  A    between atoms: CG_6  and  CD_7 
REMARK    6  A    between atoms: N_11  and  CA_12 
REMARK    7  A    between atoms: CA_12  and  C_13 
REMARK    8  A    between atoms: CA_12  and  CB_15 
REMARK       I    between atoms: C_13  and  N_22 
REMARK    9  A    between atoms: CB_15  and  CG_16 
REMARK       I    between atoms: CG_16  and  ND2_17 
REMARK   10  A    between atoms: CA_23  and  C_24 
REMARK       I    between atoms: C_24  and  N_29 
REMARK   11  A    between atoms: N_29  and  CA_30 
REMARK   12  A    between atoms: CA_30  and  C_31 
REMARK   13  A    between atoms: CA_30  and  CB_33 
REMARK       I    between atoms: C_31  and  N_39 
REMARK   14  A    between atoms: CB_33  and  CG_34 
REMARK   15  A    between atoms: CG_34  and  CD_35 
REMARK   16  A    between atoms: N_39  and  CA_40 
REMARK   17  A    between atoms: CA_40  and  C_41 
REMARK   18  A    between atoms: CA_40  and  CB_43 
REMARK       I    between atoms: C_41  and  N_47 
REMARK   19  A    between atoms: CB_43  and  OG_44 
REMARK   20  A    between atoms: N_47  and  CA_48 
REMARK   21  A    between atoms: CA_48  and  C_49 
REMARK   22  A    between atoms: CA_48  and  CB_51 
REMARK       I    between atoms: C_49  and  N_56 
REMARK   23  A    between atoms: CB_51  and  CG1_52 
REMARK   24  A    between atoms: N_56  and  CA_57 
REMARK   25  A    between atoms: CA_57  and  C_58 
REMARK   26  A    between atoms: CA_57  and  CB_60 
REMARK       I    between atoms: C_58  and  N_65 
REMARK   27  A    between atoms: CB_60  and  CG_61 
REMARK   28  A    between atoms: N_65  and  CA_66 
REMARK   29  A    between atoms: CA_66  and  C_67 
REMARK   30  A    between atoms: CA_66  and  CB_69 
REMARK       I    between atoms: C_67  and  N_74 
REMARK   31  A    between atoms: CB_69  and  CG_70 
REMARK   32  A    between atoms: N_74  and  CA_75 
REMARK   33  A    between atoms: CA_75  and  C_76 
REMARK   34  A    between atoms: CA_75  and  CB_78 
REMARK       I    between atoms: C_76  and  N_84 
REMARK   35  A    between atoms: CB_78  and  CG_79 
REMARK   36  A    between atoms: CG_79  and  CD_80 
REMARK   37  A    between atoms: N_84  and  CA_85 
REMARK   38  A    between atoms: CA_85  and  C_86 
REMARK   39  A    between atoms: CA_85  and  CB_88 
REMARK       I    between atoms: C_86  and  N_97 
REMARK   40  A    between atoms: CB_88  and  CG_89 
REMARK   41  A    between atoms: CG_89  and  CD_90 
REMARK   42  A    between atoms: CD_90  and  CE_91 
REMARK   43  A    between atoms: CE_91  and  NZ_92 
REMARK   44  A    between atoms: N_97  and  CA_98 
REMARK   45  A    between atoms: CA_98  and  C_99 
REMARK   46  A    between atoms: CA_98  and  CB_101 
REMARK       I    between atoms: C_99  and  N_105 
REMARK   47  A    between atoms: N_105  and  CA_106 
REMARK   48  A    between atoms: CA_106  and  C_107 
REMARK   49  A    between atoms: CA_106  and  CB_109 
REMARK       I    between atoms: C_107  and  N_117 
REMARK   50  A    between atoms: CB_109  and  CG_110 
REMARK   51  A    between atoms: CG_110  and  CD_111 
REMARK       I    between atoms: CD_111  and  NE2_112 
REMARK   52  A    between atoms: N_117  and  CA_118 
REMARK   53  A    between atoms: CA_118  and  C_119 
REMARK   54  A    between atoms: CA_118  and  CB_121 
REMARK       I    between atoms: C_119  and  N_134 
REMARK   55  A    between atoms: CB_121  and  CG_122 
REMARK   56  A    between atoms: CG_122  and  CD_123 
REMARK   57  A    between atoms: CD_123  and  NE_124 
REMARK       I    between atoms: NE_124  and  CZ_125 
REMARK       I    between atoms: CZ_125  and  NH1_126 
REMARK       I    between atoms: CZ_125  and  NH2_127 
REMARK   58  A    between atoms: N_134  and  CA_135 
REMARK   59  A    between atoms: CA_135  and  C_136 
REMARK   60  A    between atoms: CA_135  and  CB_138 
REMARK       I    between atoms: C_136  and  N_142 
REMARK   61  A    between atoms: N_142  and  CA_143 
REMARK   62  A    between atoms: CA_143  and  C_144 
REMARK   63  A    between atoms: CA_143  and  CB_146 
REMARK       I    between atoms: C_144  and  N_151 
REMARK   64  A    between atoms: CB_146  and  CG_147 
REMARK   65  A    between atoms: CG_147  and  SD_148 
REMARK   66  A    between atoms: N_151  and  CA_152 
REMARK   67  A    between atoms: CA_152  and  C_153 
REMARK   68  A    between atoms: CA_152  and  CB_155 
REMARK   69  A    between atoms: CB_155  and  CG_156 
REMARK   70  A    between atoms: CG_156  and  CD_157 
REMARK   71  A    between atoms: CD_157  and  NE_158 
REMARK       I    between atoms: NE_158  and  CZ_159 
REMARK       I    between atoms: CZ_159  and  NH1_160 
ROOT
ATOM      1  C   GLU d   9    1674.874 502.599-1705.917  0.00  0.00     0.241 C 
ATOM      2  O   GLU d   9    1675.538 503.354-1706.642  0.00  0.00    -0.271 OA
ATOM      3  N   LYS d  10    1674.971 501.324-1706.088  0.00  0.00    -0.346 N 
ATOM      4  H   LYS d  10    1674.440 500.689-1705.509  0.00  0.00     0.163 HD
ENDROOT
BRANCH   3   5
ATOM      5  CA  LYS d  10    1675.859 500.814-1707.128  0.00  0.00     0.176 C 
BRANCH   5   6
ATOM      6  C   LYS d  10    1675.490 501.380-1708.479  0.00  0.00     0.241 C 
ATOM      7  O   LYS d  10    1676.341 501.846-1709.251  0.00  0.00    -0.271 OA
ATOM      8  N   VAL d  11    1674.252 501.380-1708.841  0.00  0.00    -0.346 N 
ATOM      9  H   VAL d  11    1673.540 501.006-1708.231  0.00  0.00     0.163 HD
BRANCH   8  10
ATOM     10  CA  VAL d  11    1673.896 501.927-1710.147  0.00  0.00     0.180 C 
BRANCH  10  11
ATOM     11  C   VAL d  11    1674.360 503.358-1710.278  0.00  0.00     0.241 C 
ATOM     12  O   VAL d  11    1674.960 503.764-1711.281  0.00  0.00    -0.271 OA
ATOM     13  N   GLN d  12    1674.124 504.182-1709.315  0.00  0.00    -0.346 N 
ATOM     14  H   GLN d  12    1673.635 503.875-1708.486  0.00  0.00     0.163 HD
BRANCH  13  15
ATOM     15  CA  GLN d  12    1674.572 505.566-1709.441  0.00  0.00     0.177 C 
BRANCH  15  16
ATOM     16  C   GLN d  12    1676.062 505.633-1709.680  0.00  0.00     0.241 C 
ATOM     17  O   GLN d  12    1676.548 506.342-1710.558  0.00  0.00    -0.271 OA
ATOM     18  N   ARG d  13    1676.847 504.926-1708.940  0.00  0.00    -0.346 N 
ATOM     19  H   ARG d  13    1676.471 504.335-1708.212  0.00  0.00     0.163 HD
BRANCH  18  20
ATOM     20  CA  ARG d  13    1678.287 504.992-1709.172  0.00  0.00     0.176 C 
BRANCH  20  21
ATOM     21  C   ARG d  13    1678.622 504.622-1710.598  0.00  0.00     0.241 C 
ATOM     22  O   ARG d  13    1679.390 505.294-1711.282  0.00  0.00    -0.271 OA
ATOM     23  N   VAL d  14    1678.085 503.568-1711.113  0.00  0.00    -0.346 N 
ATOM     24  H   VAL d  14    1677.451 502.998-1710.571  0.00  0.00     0.163 HD
BRANCH  23  25
ATOM     25  CA  VAL d  14    1678.409 503.210-1712.491  0.00  0.00     0.180 C 
BRANCH  25  26
ATOM     26  C   VAL d  14    1678.078 504.341-1713.435  0.00  0.00     0.241 C 
ATOM     27  O   VAL d  14    1678.871 504.723-1714.305  0.00  0.00    -0.271 OA
ATOM     28  N   MET d  15    1676.934 504.927-1713.332  0.00  0.00    -0.346 N 
ATOM     29  H   MET d  15    1676.270 504.634-1712.630  0.00  0.00     0.163 HD
BRANCH  28  30
ATOM     30  CA  MET d  15    1676.613 506.021-1714.244  0.00  0.00     0.177 C 
BRANCH  30  31
ATOM     31  C   MET d  15    1677.644 507.120-1714.156  0.00  0.00     0.241 C 
ATOM     32  O   MET d  15    1678.146 507.632-1715.168  0.00  0.00    -0.271 OA
ATOM     33  N   ARG d  16    1678.014 507.540-1712.993  0.00  0.00    -0.347 N 
ATOM     34  H   ARG d  16    1677.619 507.139-1712.154  0.00  0.00     0.163 HD
BRANCH  33  35
ATOM     35  CA  ARG d  16    1679.010 508.603-1712.909  0.00  0.00     0.162 C 
BRANCH  35  36
ATOM     36  C   ARG d  16    1680.281 508.211-1713.627  0.00  0.00     0.219 C 
ATOM     37  O   ARG d  16    1680.393 507.135-1714.210  0.00  0.00    -0.287 OA
ENDBRANCH  35  36
BRANCH  35  38
ATOM     38  CB  ARG d  16    1679.281 508.920-1711.411  0.00  0.00     0.035 C 
BRANCH  38  39
ATOM     39  CG  ARG d  16    1680.107 510.208-1711.137  0.00  0.00     0.023 C 
BRANCH  39  40
ATOM     40  CD  ARG d  16    1680.358 510.425-1709.636  0.00  0.00     0.138 C 
BRANCH  40  41
ATOM     41  NE  ARG d  16    1681.135 511.684-1709.434  0.00  0.00    -0.227 N 
ATOM     42  CZ  ARG d  16    1681.527 512.165-1708.258  0.00  0.00     0.665 C 
ATOM     43  NH1 ARG d  16    1681.280 511.579-1707.120  0.00  0.00    -0.235 N 
ATOM     44  NH2 ARG d  16    1682.191 513.277-1708.239  0.00  0.00    -0.235 N 
ATOM     45 11HH ARG d  16    1680.754 510.706-1707.205  0.00  0.00     0.174 HD
ATOM     46 12HH ARG d  16    1681.615 512.013-1706.259  0.00  0.00     0.174 HD
ATOM     47 21HH ARG d  16    1682.376 513.721-1709.141  0.00  0.00     0.174 HD
ATOM     48 22HH ARG d  16    1682.483 513.631-1707.326  0.00  0.00     0.174 HD
ATOM     49  HE  ARG d  16    1681.413 512.266-1710.231  0.00  0.00     0.177 HD
ENDBRANCH  40  41
ENDBRANCH  39  40
ENDBRANCH  38  39
ENDBRANCH  35  38
ENDBRANCH  33  35
ENDBRANCH  30  31
BRANCH  30  50
ATOM     50  CB  MET d  15    1675.192 506.567-1713.933  0.00  0.00     0.045 C 
BRANCH  50  51
ATOM     51  CG  MET d  15    1674.030 505.569-1714.125  0.00  0.00     0.076 C 
BRANCH  51  52
ATOM     52  SD  MET d  15    1672.456 506.436-1714.009  0.00  0.00    -0.173 SA
ATOM     53  CE  MET d  15    1671.375 505.006-1713.873  0.00  0.00     0.089 C 
ENDBRANCH  51  52
ENDBRANCH  50  51
ENDBRANCH  30  50
ENDBRANCH  28  30
ENDBRANCH  25  26
BRANCH  25  54
ATOM     54  CB  VAL d  14    1677.636 501.893-1712.899  0.00  0.00     0.009 C 
ATOM     55  CG1 VAL d  14    1677.724 501.477-1714.393  0.00  0.00     0.012 C 
ATOM     56  CG2 VAL d  14    1678.069 500.640-1712.100  0.00  0.00     0.012 C 
ENDBRANCH  25  54
ENDBRANCH  23  25
ENDBRANCH  20  21
BRANCH  20  57
ATOM     57  CB  ARG d  13    1679.001 504.051-1708.160  0.00  0.00     0.036 C 
BRANCH  57  58
ATOM     58  CG  ARG d  13    1680.546 504.204-1708.080  0.00  0.00     0.023 C 
BRANCH  58  59
ATOM     59  CD  ARG d  13    1681.174 503.216-1707.083  0.00  0.00     0.138 C 
BRANCH  59  60
ATOM     60  NE  ARG d  13    1682.651 503.423-1707.034  0.00  0.00    -0.227 N 
ATOM     61  CZ  ARG d  13    1683.500 502.730-1706.280  0.00  0.00     0.665 C 
ATOM     62  NH1 ARG d  13    1683.135 501.765-1705.484  0.00  0.00    -0.235 N 
ATOM     63  NH2 ARG d  13    1684.759 503.029-1706.338  0.00  0.00    -0.235 N 
ATOM     64 11HH ARG d  13    1682.130 501.579-1705.486  0.00  0.00     0.174 HD
ATOM     65 12HH ARG d  13    1683.848 501.281-1704.936  0.00  0.00     0.174 HD
ATOM     66 21HH ARG d  13    1685.026 503.788-1706.968  0.00  0.00     0.174 HD
ATOM     67 22HH ARG d  13    1685.395 502.487-1705.750  0.00  0.00     0.174 HD
ATOM     68  HE  ARG d  13    1683.102 504.145-1707.604  0.00  0.00     0.177 HD
ENDBRANCH  59  60
ENDBRANCH  58  59
ENDBRANCH  57  58
ENDBRANCH  20  57
ENDBRANCH  18  20
ENDBRANCH  15  16
BRANCH  15  69
ATOM     69  CB  GLN d  12    1674.182 506.332-1708.157  0.00  0.00     0.044 C 
BRANCH  69  70
ATOM     70  CG  GLN d  12    1674.542 507.853-1708.124  0.00  0.00     0.105 C 
BRANCH  70  71
ATOM     71  CD  GLN d  12    1674.241 508.665-1706.858  0.00  0.00     0.215 C 
ATOM     72  NE2 GLN d  12    1673.675 508.088-1705.829  0.00  0.00    -0.370 N 
ATOM     73 21HE GLN d  12    1673.568 508.681-1705.005  0.00  0.00     0.159 HD
ATOM     74 22HE GLN d  12    1673.511 507.084-1705.934  0.00  0.00     0.159 HD
ATOM     75  OE1 GLN d  12    1674.543 509.846-1706.780  0.00  0.00    -0.274 OA
ENDBRANCH  70  71
ENDBRANCH  69  70
ENDBRANCH  15  69
ENDBRANCH  13  15
ENDBRANCH  10  11
BRANCH  10  76
ATOM     76  CB  VAL d  11    1672.334 501.820-1710.365  0.00  0.00     0.009 C 
ATOM     77  CG1 VAL d  11    1671.765 502.526-1711.627  0.00  0.00     0.012 C 
ATOM     78  CG2 VAL d  11    1671.810 500.366-1710.440  0.00  0.00     0.012 C 
ENDBRANCH  10  76
ENDBRANCH   8  10
ENDBRANCH   5   6
BRANCH   5  79
ATOM     79  CB  LYS d  10    1675.800 499.262-1707.142  0.00  0.00     0.035 C 
BRANCH  79  80
ATOM     80  CG  LYS d  10    1676.768 498.618-1708.166  0.00  0.00     0.004 C 
BRANCH  80  81
ATOM     81  CD  LYS d  10    1676.691 497.091-1708.253  0.00  0.00     0.027 C 
BRANCH  81  82
ATOM     82  CE  LYS d  10    1677.644 496.598-1709.350  0.00  0.00     0.229 C 
BRANCH  82  83
ATOM     83  NZ  LYS d  10    1677.704 495.126-1709.322  0.00  0.00    -0.079 N 
ATOM     84  3HZ LYS d  10    1678.390 494.882-1708.622  0.00  0.00     0.274 HD
ATOM     85  1HZ LYS d  10    1676.782 494.731-1709.101  0.00  0.00     0.274 HD
ATOM     86  2HZ LYS d  10    1677.965 494.746-1710.238  0.00  0.00     0.274 HD
ENDBRANCH  82  83
ENDBRANCH  81  82
ENDBRANCH  80  81
ENDBRANCH  79  80
ENDBRANCH   5  79
ENDBRANCH   3   5
BRANCH   1  87
ATOM     87  CA  GLU d   9    1673.956 503.127-1704.841  0.00  0.00     0.177 C 
BRANCH  87  88
ATOM     88  N   GLU d   9    1672.654 502.469-1704.897  0.00  0.00    -0.346 N 
ATOM     89  C   ASP d   8    1671.974 502.519-1705.992  0.00  0.00     0.241 C 
ATOM     90  O   ASP d   8    1672.446 503.124-1706.966  0.00  0.00    -0.271 OA
ATOM     91  H   GLU d   9    1672.290 501.982-1704.089  0.00  0.00     0.163 HD
BRANCH  89  92
ATOM     92  CA  ASP d   8    1670.627 501.839-1706.049  0.00  0.00     0.186 C 
BRANCH  92  93
ATOM     93  N   ASP d   8    1670.698 500.489-1705.496  0.00  0.00    -0.346 N 
ATOM     94  C   LEU d   7    1671.535 499.649-1706.003  0.00  0.00     0.241 C 
ATOM     95  O   LEU d   7    1672.255 500.012-1706.945  0.00  0.00    -0.271 OA
ATOM     96  H   ASP d   8    1670.100 500.218-1704.729  0.00  0.00     0.163 HD
BRANCH  94  97
ATOM     97  CA  LEU d   7    1671.607 498.253-1705.431  0.00  0.00     0.177 C 
BRANCH  97  98
ATOM     98  N   LEU d   7    1671.662 498.289-1703.972  0.00  0.00    -0.346 N 
ATOM     99  C   ILE d   6    1672.608 498.953-1703.398  0.00  0.00     0.241 C 
ATOM    100  O   ILE d   6    1673.443 499.541-1704.102  0.00  0.00    -0.271 OA
ATOM    101  H   LEU d   7    1670.971 497.802-1703.421  0.00  0.00     0.163 HD
BRANCH  99 102
ATOM    102  CA  ILE d   6    1672.666 498.990-1701.891  0.00  0.00     0.180 C 
BRANCH 102 103
ATOM    103  N   ILE d   6    1671.353 499.285-1701.324  0.00  0.00    -0.346 N 
ATOM    104  C   SER d   5    1670.748 500.368-1701.678  0.00  0.00     0.243 C 
ATOM    105  O   SER d   5    1671.295 501.121-1702.483  0.00  0.00    -0.271 OA
ATOM    106  H   ILE d   6    1670.924 498.650-1700.665  0.00  0.00     0.163 HD
BRANCH 104 107
ATOM    107  CA  SER d   5    1669.389 500.673-1701.092  0.00  0.00     0.200 C 
BRANCH 107 108
ATOM    108  N   SER d   5    1668.520 499.502-1701.151  0.00  0.00    -0.344 N 
ATOM    109  C   GLU d   4    1668.292 498.949-1702.294  0.00  0.00     0.241 C 
ATOM    110  O   GLU d   4    1668.818 499.429-1703.308  0.00  0.00    -0.271 OA
ATOM    111  H   SER d   5    1668.103 499.130-1700.309  0.00  0.00     0.163 HD
BRANCH 109 112
ATOM    112  CA  GLU d   4    1667.393 497.738-1702.355  0.00  0.00     0.177 C 
BRANCH 112 113
ATOM    113  N   GLU d   4    1667.753 496.767-1701.325  0.00  0.00    -0.346 N 
ATOM    114  C   PRO d   3    1668.958 496.307-1701.293  0.00  0.00     0.241 C 
ATOM    115  O   PRO d   3    1669.781 496.690-1702.125  0.00  0.00    -0.271 OA
ATOM    116  H   GLU d   4    1667.069 496.460-1700.649  0.00  0.00     0.163 HD
BRANCH 114 117
ATOM    117  CA  PRO d   3    1669.356 495.283-1700.216  0.00  0.00     0.179 C 
ATOM    118  N   PRO d   3    1668.904 495.693-1698.895  0.00  0.00    -0.337 N 
ATOM    119  C   ASN d   2    1669.426 496.688-1698.261  0.00  0.00     0.243 C 
ATOM    120  CD  PRO d   3    1667.826 494.900-1698.346  0.00  0.00     0.127 C 
ATOM    121  O   ASN d   2    1670.340 497.318-1698.789  0.00  0.00    -0.271 OA
ATOM    122  CG  PRO d   3    1667.369 494.081-1699.555  0.00  0.00     0.022 C 
ATOM    123  CB  PRO d   3    1668.652 493.929-1700.386  0.00  0.00     0.037 C 
BRANCH 119 124
ATOM    124  CA  ASN d   2    1668.895 497.043-1696.892  0.00  0.00     0.185 C 
BRANCH 124 125
ATOM    125  N   ASN d   2    1667.435 497.082-1696.892  0.00  0.00    -0.346 N 
ATOM    126  C   GLU d   1    1666.831 497.868-1697.717  0.00  0.00     0.242 C 
ATOM    127  O   GLU d   1    1667.507 498.567-1698.486  0.00  0.00    -0.271 OA
ATOM    128  H   ASN d   2    1666.907 496.502-1696.255  0.00  0.00     0.163 HD
BRANCH 126 129
ATOM    129  CA  GLU d   1    1665.322 497.908-1697.717  0.00  0.00     0.191 C 
BRANCH 129 130
ATOM    130  N   GLU d   1    1664.763 496.559-1697.717  0.00  0.00    -0.326 NA
ATOM    131  H   GLU d   1    1665.390 495.680-1697.717  0.00  0.00     0.180 HD
ENDBRANCH 129 130
BRANCH 129 132
ATOM    132  CB  GLU d   1    1664.799 498.693-1696.480  0.00  0.00     0.047 C 
BRANCH 132 133
ATOM    133  CG  GLU d   1    1665.274 500.178-1696.369  0.00  0.00     0.116 C 
BRANCH 133 134
ATOM    134  CD  GLU d   1    1664.850 500.982-1695.154  0.00  0.00     0.172 C 
ATOM    135  OE1 GLU d   1    1664.122 500.480-1694.276  0.00  0.00    -0.648 OA
ATOM    136  OE2 GLU d   1    1665.280 502.152-1695.082  0.00  0.00    -0.648 OA
ENDBRANCH 133 134
ENDBRANCH 132 133
ENDBRANCH 129 132
ENDBRANCH 126 129
ENDBRANCH 124 125
BRANCH 124 137
ATOM    137  CB  ASN d   2    1669.387 496.020-1695.828  0.00  0.00     0.137 C 
BRANCH 137 138
ATOM    138  CG  ASN d   2    1668.924 496.244-1694.384  0.00  0.00     0.217 C 
ATOM    139  ND2 ASN d   2    1669.518 497.159-1693.666  0.00  0.00    -0.370 N 
ATOM    140 21HD ASN d   2    1669.037 497.332-1692.780  0.00  0.00     0.159 HD
ATOM    141 22HD ASN d   2    1670.219 497.731-1694.135  0.00  0.00     0.159 HD
ATOM    142  OD1 ASN d   2    1668.003 495.610-1693.890  0.00  0.00    -0.274 OA
ENDBRANCH 137 138
ENDBRANCH 124 137
ENDBRANCH 119 124
ENDBRANCH 114 117
ENDBRANCH 112 113
BRANCH 112 143
ATOM    143  CB  GLU d   4    1665.905 498.157-1702.184  0.00  0.00     0.045 C 
BRANCH 143 144
ATOM    144  CG  GLU d   4    1665.356 499.160-1703.250  0.00  0.00     0.116 C 
BRANCH 144 145
ATOM    145  CD  GLU d   4    1663.930 499.657-1703.106  0.00  0.00     0.172 C 
ATOM    146  OE1 GLU d   4    1663.204 499.258-1702.175  0.00  0.00    -0.648 OA
ATOM    147  OE2 GLU d   4    1663.540 500.486-1703.954  0.00  0.00    -0.648 OA
ENDBRANCH 144 145
ENDBRANCH 143 144
ENDBRANCH 112 143
ENDBRANCH 109 112
ENDBRANCH 107 108
BRANCH 107 148
ATOM    148  CB  SER d   5    1669.501 501.205-1699.642  0.00  0.00     0.199 C 
BRANCH 148 149
ATOM    149  OG  SER d   5    1670.233 500.326-1698.781  0.00  0.00    -0.398 OA
ATOM    150  HG  SER d   5    1669.744 499.501-1698.730  0.00  0.00     0.209 HD
ENDBRANCH 148 149
ENDBRANCH 107 148
ENDBRANCH 104 107
ENDBRANCH 102 103
BRANCH 102 151
ATOM    151  CB  ILE d   6    1673.266 497.654-1701.291  0.00  0.00     0.013 C 
ATOM    152  CG2 ILE d   6    1674.707 497.353-1701.806  0.00  0.00     0.012 C 
BRANCH 151 153
ATOM    153  CG1 ILE d   6    1673.285 497.592-1699.730  0.00  0.00     0.002 C 
ATOM    154  CD1 ILE d   6    1673.555 496.202-1699.115  0.00  0.00     0.005 C 
ENDBRANCH 151 153
ENDBRANCH 102 151
ENDBRANCH  99 102
ENDBRANCH  97  98
BRANCH  97 155
ATOM    155  CB  LEU d   7    1670.404 497.393-1705.911  0.00  0.00     0.038 C 
BRANCH 155 156
ATOM    156  CG  LEU d   7    1670.332 495.914-1705.445  0.00  0.00    -0.020 C 
ATOM    157  CD1 LEU d   7    1669.142 495.208-1706.110  0.00  0.00     0.009 C 
ATOM    158  CD2 LEU d   7    1671.625 495.135-1705.736  0.00  0.00     0.009 C 
ENDBRANCH 155 156
ENDBRANCH  97 155
ENDBRANCH  94  97
ENDBRANCH  92  93
BRANCH  92 159
ATOM    159  CB  ASP d   8    1669.549 502.678-1705.307  0.00  0.00     0.147 C 
BRANCH 159 160
ATOM    160  CG  ASP d   8    1669.330 504.099-1705.847  0.00  0.00     0.175 C 
ATOM    161  OD1 ASP d   8    1669.394 504.298-1707.078  0.00  0.00    -0.648 OA
ATOM    162  OD2 ASP d   8    1669.138 505.024-1705.031  0.00  0.00    -0.648 OA
ENDBRANCH 159 160
ENDBRANCH  92 159
ENDBRANCH  89  92
ENDBRANCH  87  88
BRANCH  87 163
ATOM    163  CB  GLU d   9    1674.590 502.918-1703.436  0.00  0.00     0.045 C 
BRANCH 163 164
ATOM    164  CG  GLU d   9    1675.972 503.611-1703.206  0.00  0.00     0.116 C 
BRANCH 164 165
ATOM    165  CD  GLU d   9    1676.675 503.397-1701.878  0.00  0.00     0.172 C 
ATOM    166  OE1 GLU d   9    1676.153 502.705-1700.982  0.00  0.00    -0.648 OA
ATOM    167  OE2 GLU d   9    1677.794 503.935-1701.746  0.00  0.00    -0.648 OA
ENDBRANCH 164 165
ENDBRANCH 163 164
ENDBRANCH  87 163
ENDBRANCH   1  87
TORSDOF 71
