@<TRIPOS>MOLECULE
4-4
266 267 16              
SMALL
USER_CHARGES
@<TRIPOS>ATOM
1	   N	557.750	133.197	-499.903	N.3	1	GLU1	-0.516	
2	  CA	558.309	134.546	-499.903	C.3	1	GLU1	0.040	
3	   C	559.818	134.506	-499.903	C.2	1	GLU1	0.537	
4	   O	560.494	135.205	-500.671	O.2	1	GLU1	-0.582	
5	  CB	557.786	135.331	-498.666	C.3	1	GLU1	0.056	
6	  CG	558.261	136.816	-498.555	C.3	1	GLU1	0.014	
7	  CD	557.837	137.620	-497.340	C.2	1	GLU1	0.805	
8	 OE1	557.109	137.118	-496.462	O.co2	1	GLU1	-0.819	
9	 OE2	558.267	138.790	-497.268	O.co2	1	GLU1	-0.819	
10	   H	558.377	132.318	-499.903	 H	1	GLU1	0.294	
11	  HA	557.983	135.064	-500.823	 H	1	GLU1	0.111	
12	 2HB	558.075	134.800	-497.736	 H	1	GLU1	-0.017	
13	 3HB	556.679	135.321	-498.653	 H	1	GLU1	-0.017	
14	 2HG	557.951	137.401	-499.436	 H	1	GLU1	-0.043	
15	 3HG	559.361	136.883	-498.526	 H	1	GLU1	-0.043	
16	   N	560.423	133.720	-499.077	N.am	2	ASN2	-0.416	
17	  CA	561.882	133.682	-499.077	C.3	2	ASN2	0.014	
18	   C	562.414	133.326	-500.446	C.2	2	ASN2	0.597	
19	   O	563.328	133.957	-500.975	O.2	2	ASN2	-0.568	
20	  CB	562.374	132.659	-498.013	C.3	2	ASN2	-0.204	
21	  CG	561.911	132.882	-496.570	C.2	2	ASN2	0.713	
22	 ND2	562.506	133.797	-495.852	N.pl3	2	ASN2	-0.919	
23	 OD1	560.991	132.249	-496.076	O.2	2	ASN2	-0.593	
24	   H	559.895	133.141	-498.441	 H	2	ASN2	0.272	
25	  HA	562.260	134.692	-498.832	 H	2	ASN2	0.105	
26	 2HB	563.479	132.600	-498.017	 H	2	ASN2	0.080	
27	 3HB	562.045	131.640	-498.299	 H	2	ASN2	0.080	
28	1HD2	562.025	133.970	-494.965	 H	2	ASN2	0.420	
29	2HD2	563.207	134.369	-496.321	 H	2	ASN2	0.420	
30	   N	561.892	132.331	-501.080	N.am	3	PRO3	-0.255	
31	  CA	562.344	131.922	-502.402	C.3	3	PRO3	-0.027	
32	   C	561.946	132.945	-503.479	C.2	3	PRO3	0.590	
33	   O	562.769	133.329	-504.310	O.2	3	PRO3	-0.575	
34	  CB	561.640	130.567	-502.571	C.3	3	PRO3	-0.007	
35	  CG	560.357	130.719	-501.741	C.3	3	PRO3	0.019	
36	  CD	560.814	131.538	-500.531	C.3	3	PRO3	0.019	
37	  HA	563.430	131.802	-502.415	 H	3	PRO3	0.064	
38	 2HB	562.263	129.786	-502.130	 H	3	PRO3	0.025	
39	 3HB	561.442	130.319	-503.616	 H	3	PRO3	0.025	
40	 2HG	559.929	129.757	-501.450	 H	3	PRO3	0.021	
41	 3HG	559.619	131.290	-502.308	 H	3	PRO3	0.021	
42	 2HD	561.204	130.888	-499.744	 H	3	PRO3	0.039	
43	 3HD	560.018	132.174	-500.138	 H	3	PRO3	0.039	
44	   N	560.741	133.405	-503.511	N.am	4	VAL4	-0.416	
45	  CA	560.381	134.376	-504.540	C.3	4	VAL4	-0.087	
46	   C	561.281	135.588	-504.479	C.2	4	VAL4	0.597	
47	   O	561.806	136.067	-505.491	O.2	4	VAL4	-0.568	
48	  CB	558.866	134.792	-504.378	C.3	4	VAL4	0.299	
49	 CG1	558.370	135.957	-505.279	C.3	4	VAL4	-0.319	
50	 CG2	557.868	133.635	-504.624	C.3	4	VAL4	-0.319	
51	   H	560.057	133.098	-502.834	 H	4	VAL4	0.272	
52	  HA	560.529	133.914	-505.533	 H	4	VAL4	0.097	
53	  HB	558.728	135.126	-503.328	 H	4	VAL4	-0.030	
54	1HG1	558.483	135.736	-506.357	 H	4	VAL4	0.079	
55	2HG1	557.305	136.200	-505.104	 H	4	VAL4	0.079	
56	3HG1	558.912	136.902	-505.084	 H	4	VAL4	0.079	
57	1HG2	558.084	132.763	-503.980	 H	4	VAL4	0.079	
58	2HG2	556.827	133.933	-504.395	 H	4	VAL4	0.079	
59	3HG2	557.886	133.280	-505.672	 H	4	VAL4	0.079	
60	   N	561.508	136.140	-503.336	N.am	5	SER5	-0.416	
61	  CA	562.377	137.311	-503.276	C.3	5	SER5	-0.025	
62	   C	563.736	137.006	-503.862	C.2	5	SER5	0.597	
63	   O	564.283	137.760	-504.666	O.2	5	SER5	-0.568	
64	  CB	562.488	137.843	-501.826	C.3	5	SER5	0.212	
65	  OG	563.220	136.964	-500.965	O.3	5	SER5	-0.655	
66	   H	561.090	135.768	-502.494	 H	5	SER5	0.272	
67	  HA	561.928	138.102	-503.906	 H	5	SER5	0.084	
68	 2HB	561.488	138.037	-501.393	 H	5	SER5	0.035	
69	 3HB	562.993	138.829	-501.828	 H	5	SER5	0.035	
70	  HG	562.731	136.139	-500.915	 H	5	SER5	0.428	
71	   N	564.341	135.923	-503.508	N.am	6	ILE6	-0.416	
72	  CA	565.654	135.628	-504.074	C.3	6	ILE6	-0.060	
73	   C	565.597	135.591	-505.582	C.2	6	ILE6	0.597	
74	   O	566.432	136.179	-506.285	O.2	6	ILE6	-0.568	
75	  CB	566.254	134.292	-503.474	C.3	6	ILE6	0.130	
76	 CG1	566.273	134.229	-501.913	C.3	6	ILE6	-0.043	
77	 CG2	567.695	133.991	-503.989	C.3	6	ILE6	-0.320	
78	 CD1	566.543	132.840	-501.299	C.3	6	ILE6	-0.066	
79	   H	563.912	135.288	-502.849	 H	6	ILE6	0.272	
80	  HA	566.328	136.463	-503.806	 H	6	ILE6	0.087	
81	  HB	565.596	133.466	-503.819	 H	6	ILE6	0.019	
82	2HG1	565.291	134.549	-501.518	 H	6	ILE6	0.024	
83	3HG1	566.989	134.971	-501.508	 H	6	ILE6	0.024	
84	1HG2	567.754	133.898	-505.088	 H	6	ILE6	0.088	
85	2HG2	568.417	134.773	-503.687	 H	6	ILE6	0.088	
86	3HG2	568.085	133.029	-503.611	 H	6	ILE6	0.088	
87	1HD1	565.815	132.086	-501.654	 H	6	ILE6	0.019	
88	2HD1	567.554	132.462	-501.534	 H	6	ILE6	0.019	
89	3HD1	566.466	132.870	-500.196	 H	6	ILE6	0.019	
90	   N	564.652	134.928	-506.156	N.am	7	LEU7	-0.416	
91	  CA	564.597	134.892	-507.615	C.3	7	LEU7	-0.052	
92	   C	564.525	136.288	-508.186	C.2	7	LEU7	0.597	
93	   O	565.246	136.651	-509.128	O.2	7	LEU7	-0.568	
94	  CB	563.394	134.032	-508.096	C.3	7	LEU7	-0.110	
95	  CG	563.322	132.552	-507.630	C.3	7	LEU7	0.353	
96	 CD1	562.132	131.847	-508.296	C.3	7	LEU7	-0.412	
97	 CD2	564.616	131.774	-507.921	C.3	7	LEU7	-0.412	
98	   H	563.960	134.440	-505.605	 H	7	LEU7	0.272	
99	  HA	565.539	134.453	-507.989	 H	7	LEU7	0.092	
100	 2HB	563.372	134.048	-509.203	 H	7	LEU7	0.046	
101	 3HB	562.455	134.534	-507.791	 H	7	LEU7	0.046	
102	  HG	563.152	132.544	-506.533	 H	7	LEU7	-0.036	
103	1HD1	561.175	132.355	-508.073	 H	7	LEU7	0.100	
104	2HD1	562.232	131.807	-509.397	 H	7	LEU7	0.100	
105	3HD1	562.025	130.805	-507.940	 H	7	LEU7	0.100	
106	1HD2	564.891	131.804	-508.991	 H	7	LEU7	0.100	
107	2HD2	565.469	132.185	-507.350	 H	7	LEU7	0.100	
108	3HD2	564.534	130.711	-507.625	 H	7	LEU7	0.100	
109	   N	563.687	137.128	-507.680	N.am	8	ASP8	-0.516	
110	  CA	563.617	138.478	-508.233	C.3	8	ASP8	0.038	
111	   C	564.963	139.158	-508.175	C.2	8	ASP8	0.537	
112	   O	565.436	139.763	-509.149	O.2	8	ASP8	-0.582	
113	  CB	562.538	139.316	-507.491	C.3	8	ASP8	-0.030	
114	  CG	562.319	140.737	-508.031	C.2	8	ASP8	0.799	
115	 OD1	562.383	140.937	-509.262	O.co2	8	ASP8	-0.801	
116	 OD2	562.126	141.663	-507.216	O.co2	8	ASP8	-0.801	
117	   H	563.089	136.856	-506.913	 H	8	ASP8	0.294	
118	  HA	563.334	138.400	-509.300	 H	8	ASP8	0.088	
119	 2HB	562.795	139.399	-506.419	 H	8	ASP8	-0.012	
120	 3HB	561.559	138.811	-507.525	 H	8	ASP8	-0.012	
121	   N	565.643	139.108	-507.080	N.am	9	GLU9	-0.516	
122	  CA	566.945	139.765	-507.024	C.3	9	GLU9	0.040	
123	   C	567.864	139.238	-508.099	C.2	9	GLU9	0.537	
124	   O	568.528	139.993	-508.824	O.2	9	GLU9	-0.582	
125	  CB	567.578	139.557	-505.618	C.3	9	GLU9	0.056	
126	  CG	568.961	140.250	-505.388	C.3	9	GLU9	0.014	
127	  CD	569.662	140.036	-504.060	C.2	9	GLU9	0.805	
128	 OE1	569.141	139.345	-503.164	O.co2	9	GLU9	-0.819	
129	 OE2	570.781	140.574	-503.928	O.co2	9	GLU9	-0.819	
130	   H	565.279	138.621	-506.273	 H	9	GLU9	0.294	
131	  HA	566.803	140.847	-507.199	 H	9	GLU9	0.111	
132	 2HB	567.691	138.473	-505.415	 H	9	GLU9	-0.017	
133	 3HB	566.881	139.910	-504.834	 H	9	GLU9	-0.017	
134	 2HG	568.889	141.341	-505.527	 H	9	GLU9	-0.043	
135	 3HG	569.708	139.905	-506.122	 H	9	GLU9	-0.043	
136	   N	567.960	137.963	-508.270	N.am	10	HIS10	-0.416	
137	  CA	568.849	137.453	-509.310	C.3	10	HIS10	-0.058	
138	   C	568.482	138.018	-510.661	C.2	10	HIS10	0.597	
139	   O	569.335	138.483	-511.432	O.2	10	HIS10	-0.568	
140	  CB	568.685	135.924	-509.306	C.3	10	HIS10	-0.007	
141	  CG	569.971	135.214	-508.998	C.2	10	HIS10	0.187	
142	 CD2	570.351	134.878	-507.705	C.2	10	HIS10	-0.221	
143	 ND1	570.923	134.809	-509.930	N.2	10	HIS10	-0.543	
144	 CE1	571.830	134.250	-509.107	C.2	10	HIS10	0.163	
145	 NE2	571.566	134.246	-507.772	N.pl3	10	HIS10	-0.280	
146	   H	567.430	137.328	-507.692	 H	10	HIS10	0.272	
147	  HA	569.868	137.810	-509.084	 H	10	HIS10	0.136	
148	 2HB	568.320	135.557	-510.286	 H	10	HIS10	0.037	
149	 3HB	567.929	135.586	-508.566	 H	10	HIS10	0.037	
150	 2HD	569.765	135.092	-506.816	 H	10	HIS10	0.186	
151	 1HE	572.721	133.830	-509.554	 H	10	HIS10	0.144	
152	 2HE	572.133	133.869	-506.999	 H	10	HIS10	0.334	
153	   N	567.245	138.017	-511.024	N.am	11	VAL11	-0.416	
154	  CA	566.890	138.564	-512.331	C.3	11	VAL11	-0.087	
155	   C	567.354	139.994	-512.462	C.2	11	VAL11	0.597	
156	   O	567.955	140.400	-513.465	O.2	11	VAL11	-0.568	
157	  CB	565.329	138.457	-512.551	C.3	11	VAL11	0.299	
158	 CG1	564.760	139.161	-513.813	C.3	11	VAL11	-0.319	
159	 CG2	564.805	137.003	-512.625	C.3	11	VAL11	-0.319	
160	   H	566.532	137.644	-510.414	 H	11	VAL11	0.272	
161	  HA	567.410	137.982	-513.113	 H	11	VAL11	0.097	
162	  HB	564.841	138.936	-511.676	 H	11	VAL11	-0.030	
163	1HG1	565.199	138.770	-514.750	 H	11	VAL11	0.079	
164	2HG1	563.662	139.054	-513.896	 H	11	VAL11	0.079	
165	3HG1	564.938	140.254	-513.803	 H	11	VAL11	0.079	
166	1HG2	565.094	136.415	-511.734	 H	11	VAL11	0.079	
167	2HG2	563.699	136.965	-512.668	 H	11	VAL11	0.079	
168	3HG2	565.187	136.462	-513.512	 H	11	VAL11	0.079	
169	   N	567.116	140.820	-511.500	N.am	12	GLN12	-0.416	
170	  CA	567.565	142.203	-511.626	C.3	12	GLN12	-0.003	
171	   C	569.055	142.270	-511.863	C.2	12	GLN12	0.597	
172	   O	569.542	142.979	-512.741	O.2	12	GLN12	-0.568	
173	  CB	567.173	142.969	-510.343	C.3	12	GLN12	-0.004	
174	  CG	567.533	144.491	-510.311	C.3	12	GLN12	-0.064	
175	  CD	567.230	145.304	-509.046	C.2	12	GLN12	0.695	
176	 NE2	566.663	144.727	-508.017	N.pl3	12	GLN12	-0.941	
177	 OE1	567.532	146.485	-508.967	O.2	12	GLN12	-0.609	
178	   H	566.627	140.513	-510.671	 H	12	GLN12	0.272	
179	  HA	567.065	142.659	-512.501	 H	12	GLN12	0.085	
180	 2HB	567.649	142.469	-509.474	 H	12	GLN12	0.017	
181	 3HB	566.083	142.862	-510.180	 H	12	GLN12	0.017	
182	 2HG	567.056	145.012	-511.161	 H	12	GLN12	0.035	
183	 3HG	568.617	144.634	-510.476	 H	12	GLN12	0.035	
184	1HE2	566.555	145.321	-507.193	 H	12	GLN12	0.425	
185	2HE2	566.499	143.723	-508.121	 H	12	GLN12	0.425	
186	   N	569.839	141.563	-511.122	N.am	13	ARG13	-0.348	
187	  CA	571.279	141.630	-511.353	C.3	13	ARG13	-0.264	
188	   C	571.616	141.259	-512.778	C.2	13	ARG13	0.734	
189	   O	572.385	141.931	-513.461	O.2	13	ARG13	-0.589	
190	  CB	571.992	140.690	-510.339	C.3	13	ARG13	-0.001	
191	  CG	573.537	140.843	-510.257	C.3	13	ARG13	0.039	
192	  CD	574.164	139.855	-509.260	C.3	13	ARG13	0.049	
193	  NE	575.641	140.063	-509.209	N.pl3	13	ARG13	-0.530	
194	  CZ	576.489	139.371	-508.453	C.cat	13	ARG13	0.808	
195	 NH1	576.124	138.406	-507.657	N.pl3	13	ARG13	-0.863	
196	 NH2	577.748	139.670	-508.510	N.pl3	13	ARG13	-0.863	
197	   H	569.463	140.973	-510.395	 H	13	ARG13	0.275	
198	  HA	571.604	142.675	-511.193	 H	13	ARG13	0.156	
199	 2HB	571.726	139.640	-510.579	 H	13	ARG13	0.033	
200	 3HB	571.567	140.856	-509.328	 H	13	ARG13	0.033	
201	 2HG	573.785	141.888	-509.977	 H	13	ARG13	0.029	
202	 3HG	573.988	140.688	-511.259	 H	13	ARG13	0.029	
203	 2HD	573.920	138.815	-509.570	 H	13	ARG13	0.069	
204	 3HD	573.707	140.000	-508.257	 H	13	ARG13	0.069	
205	  HE	576.093	140.785	-509.779	 H	13	ARG13	0.346	
206	1HH1	575.118	138.219	-507.661	 H	13	ARG13	0.448	
207	2HH1	576.837	137.922	-507.108	 H	13	ARG13	0.448	
208	1HH2	578.016	140.428	-509.140	 H	13	ARG13	0.448	
209	2HH2	578.384	139.128	-507.921	 H	13	ARG13	0.448	
210	   N	571.081	140.205	-513.293	N.am	14	VAL14	-0.416	
211	  CA	571.406	139.846	-514.671	C.3	14	VAL14	-0.087	
212	   C	571.076	140.977	-515.616	C.2	14	VAL14	0.597	
213	   O	571.870	141.359	-516.485	O.2	14	VAL14	-0.568	
214	  CB	570.634	138.529	-515.079	C.3	14	VAL14	0.299	
215	 CG1	570.724	138.112	-516.572	C.3	14	VAL14	-0.319	
216	 CG2	571.066	137.277	-514.279	C.3	14	VAL14	-0.319	
217	   H	570.445	139.636	-512.752	 H	14	VAL14	0.272	
218	  HA	572.494	139.670	-514.745	 H	14	VAL14	0.097	
219	  HB	569.558	138.700	-514.863	 H	14	VAL14	-0.030	
220	1HG1	571.765	137.936	-516.901	 H	14	VAL14	0.079	
221	2HG1	570.151	137.189	-516.786	 H	14	VAL14	0.079	
222	3HG1	570.295	138.875	-517.250	 H	14	VAL14	0.079	
223	1HG2	570.978	137.435	-513.189	 H	14	VAL14	0.079	
224	2HG2	570.430	136.400	-514.512	 H	14	VAL14	0.079	
225	3HG2	572.114	136.987	-514.485	 H	14	VAL14	0.079	
226	   N	569.931	141.563	-515.514	N.am	15	MET15	-0.416	
227	  CA	569.611	142.656	-516.427	C.3	15	MET15	-0.024	
228	   C	570.641	143.756	-516.338	C.2	15	MET15	0.597	
229	   O	571.144	144.268	-517.350	O.2	15	MET15	-0.568	
230	  CB	568.189	143.201	-516.118	C.3	15	MET15	0.034	
231	  CG	567.028	142.203	-516.311	C.3	15	MET15	0.002	
232	  SD	565.453	143.069	-516.197	S.3	15	MET15	-0.274	
233	  CE	564.372	141.638	-516.062	C.3	15	MET15	-0.054	
234	   H	569.266	141.269	-514.813	 H	15	MET15	0.272	
235	  HA	569.637	142.269	-517.463	 H	15	MET15	0.088	
236	 2HB	567.987	144.080	-516.760	 H	15	MET15	0.024	
237	 3HB	568.153	143.593	-515.082	 H	15	MET15	0.024	
238	 2HG	567.070	141.416	-515.534	 H	15	MET15	0.044	
239	 3HG	567.091	141.688	-517.288	 H	15	MET15	0.044	
240	 1HE	564.517	140.951	-516.915	 H	15	MET15	0.068	
241	 2HE	564.581	141.085	-515.129	 H	15	MET15	0.068	
242	 3HE	563.315	141.954	-516.045	 H	15	MET15	0.068	
243	   N	571.009	144.176	-515.175	N.am	16	ARG16	-0.348	
244	  CA	572.005	145.240	-515.090	C.3	16	ARG16	-0.264	
245	   C	573.276	144.848	-515.806	C.2	16	ARG16	0.734	
246	   O	573.391	143.772	-516.388	O.2	16	ARG16	-0.589	
247	  CB	572.274	145.557	-513.591	C.3	16	ARG16	-0.001	
248	  CG	573.098	146.846	-513.317	C.3	16	ARG16	0.039	
249	  CD	573.347	147.064	-511.816	C.3	16	ARG16	0.049	
250	  NE	574.123	148.323	-511.613	N.pl3	16	ARG16	-0.530	
251	  CZ	574.514	148.805	-510.437	C.cat	16	ARG16	0.808	
252	 NH1	574.266	148.219	-509.299	N.pl3	16	ARG16	-0.863	
253	 NH2	575.178	149.917	-510.418	N.pl3	16	ARG16	-0.863	
254	   H	570.614	143.775	-514.336	 H	16	ARG16	0.275	
255	  HA	571.596	146.133	-515.600	 H	16	ARG16	0.156	
256	 2HB	572.771	144.681	-513.126	 H	16	ARG16	0.033	
257	 3HB	571.305	145.637	-513.058	 H	16	ARG16	0.033	
258	 2HG	572.568	147.717	-513.754	 H	16	ARG16	0.029	
259	 3HG	574.072	146.793	-513.846	 H	16	ARG16	0.029	
260	 2HD	573.896	146.189	-511.403	 H	16	ARG16	0.069	
261	 3HD	572.374	147.106	-511.281	 H	16	ARG16	0.069	
262	  HE	574.402	148.905	-512.410	 H	16	ARG16	0.346	
263	1HH1	573.740	147.346	-509.385	 H	16	ARG16	0.448	
264	2HH1	574.600	148.654	-508.438	 H	16	ARG16	0.448	
265	1HH2	575.363	150.361	-511.319	 H	16	ARG16	0.448	
266	2HH2	575.468	150.272	-509.505	 H	16	ARG16	0.448	
@<TRIPOS>BOND
1 1 2 1
2 1 10 1
3 2 3 1
4 2 5 1
5 2 11 1
6 3 4 2
7 3 16 1
8 5 6 1
9 6 7 1
10 7 8 2
11 7 9 1
12 5 12 1
13 5 13 1
14 6 14 1
15 6 15 1
16 16 17 1
17 16 24 1
18 17 18 1
19 17 20 1
20 17 25 1
21 18 19 2
22 18 30 1
23 20 21 1
24 21 22 1
25 21 23 2
26 20 26 1
27 20 27 1
28 22 28 1
29 22 29 1
30 30 31 1
31 30 36 1
32 31 32 1
33 31 34 1
34 31 37 1
35 32 33 2
36 32 44 1
37 34 35 1
38 35 36 1
39 34 38 1
40 34 39 1
41 35 40 1
42 35 41 1
43 36 42 1
44 36 43 1
45 44 45 1
46 44 51 1
47 45 46 1
48 45 48 1
49 45 52 1
50 46 47 2
51 46 60 1
52 48 49 1
53 48 50 1
54 48 53 1
55 49 54 1
56 49 55 1
57 49 56 1
58 50 57 1
59 50 58 1
60 50 59 1
61 60 61 1
62 60 66 1
63 61 62 1
64 61 64 1
65 61 67 1
66 62 63 2
67 62 71 1
68 64 65 1
69 64 68 1
70 64 69 1
71 65 70 1
72 71 72 1
73 71 79 1
74 72 73 1
75 72 75 1
76 72 80 1
77 73 74 2
78 73 90 1
79 75 76 1
80 75 77 1
81 76 78 1
82 75 81 1
83 76 82 1
84 76 83 1
85 77 84 1
86 77 85 1
87 77 86 1
88 78 87 1
89 78 88 1
90 78 89 1
91 90 91 1
92 90 98 1
93 91 92 1
94 91 94 1
95 91 99 1
96 92 93 2
97 92 109 1
98 94 95 1
99 95 96 1
100 95 97 1
101 94 100 1
102 94 101 1
103 95 102 1
104 96 103 1
105 96 104 1
106 96 105 1
107 97 106 1
108 97 107 1
109 97 108 1
110 109 110 1
111 109 117 1
112 110 111 1
113 110 113 1
114 110 118 1
115 111 112 2
116 111 121 1
117 113 114 1
118 114 115 2
119 114 116 1
120 113 119 1
121 113 120 1
122 121 122 1
123 121 130 1
124 122 123 1
125 122 125 1
126 122 131 1
127 123 124 2
128 123 136 1
129 125 126 1
130 126 127 1
131 127 128 2
132 127 129 1
133 125 132 1
134 125 133 1
135 126 134 1
136 126 135 1
137 136 137 1
138 136 146 1
139 137 138 1
140 137 140 1
141 137 147 1
142 138 139 2
143 138 153 1
144 140 141 1
145 141 142 2
146 142 145 1
147 141 143 1
148 143 144 2
149 144 145 1
150 140 148 1
151 140 149 1
152 142 150 1
153 144 151 1
154 145 152 1
155 153 154 1
156 153 160 1
157 154 155 1
158 154 157 1
159 154 161 1
160 155 156 2
161 155 169 1
162 157 158 1
163 157 159 1
164 157 162 1
165 158 163 1
166 158 164 1
167 158 165 1
168 159 166 1
169 159 167 1
170 159 168 1
171 169 170 1
172 169 178 1
173 170 171 1
174 170 173 1
175 170 179 1
176 171 172 2
177 171 186 1
178 173 174 1
179 174 175 1
180 175 176 1
181 175 177 2
182 173 180 1
183 173 181 1
184 174 182 1
185 174 183 1
186 176 184 1
187 176 185 1
188 186 187 1
189 186 197 1
190 187 188 1
191 187 190 1
192 187 198 1
193 188 189 2
194 188 210 1
195 190 191 1
196 191 192 1
197 192 193 1
198 193 194 1
199 194 195 2
200 194 196 1
201 190 199 1
202 190 200 1
203 191 201 1
204 191 202 1
205 192 203 1
206 192 204 1
207 193 205 1
208 195 206 1
209 195 207 1
210 196 208 1
211 196 209 1
212 210 211 1
213 210 217 1
214 211 212 1
215 211 214 1
216 211 218 1
217 212 213 2
218 212 226 1
219 214 215 1
220 214 216 1
221 214 219 1
222 215 220 1
223 215 221 1
224 215 222 1
225 216 223 1
226 216 224 1
227 216 225 1
228 226 227 1
229 226 234 1
230 227 228 1
231 227 230 1
232 227 235 1
233 228 229 2
234 228 243 1
235 230 231 1
236 231 232 1
237 232 233 1
238 230 236 1
239 230 237 1
240 231 238 1
241 231 239 1
242 233 240 1
243 233 241 1
244 233 242 1
245 243 244 1
246 243 254 1
247 244 245 1
248 244 247 1
249 244 255 1
250 245 246 2
251 247 248 1
252 248 249 1
253 249 250 1
254 250 251 1
255 251 252 2
256 251 253 1
257 247 256 1
258 247 257 1
259 248 258 1
260 248 259 1
261 249 260 1
262 249 261 1
263 250 262 1
264 252 263 1
265 252 264 1
266 253 265 1
267 253 266 1
@<TRIPOS>SUBSTRUCTURE
1	GLU1	1	RESIDUE	1 ****	GLU
2	ASN2	16	RESIDUE	1 ****	ASN
3	PRO3	30	RESIDUE	1 ****	PRO
4	VAL4	44	RESIDUE	1 ****	VAL
5	SER5	60	RESIDUE	1 ****	SER
6	ILE6	71	RESIDUE	1 ****	ILE
7	LEU7	90	RESIDUE	1 ****	LEU
8	ASP8	109	RESIDUE	1 ****	ASP
9	GLU9	121	RESIDUE	1 ****	GLU
10	HIS10	136	RESIDUE	1 ****	HIS
11	VAL11	153	RESIDUE	1 ****	VAL
12	GLN12	169	RESIDUE	1 ****	GLN
13	ARG13	186	RESIDUE	1 ****	ARG
14	VAL14	210	RESIDUE	1 ****	VAL
15	MET15	226	RESIDUE	1 ****	MET
16	ARG16	243	RESIDUE	1 ****	ARG
