@<TRIPOS>MOLECULE
16-10
265 268 16              
SMALL
USER_CHARGES
@<TRIPOS>ATOM
1	   N	2569.883	788.349	-2683.992	N.3	1	GLU1	-0.516	
2	  CA	2570.442	789.698	-2683.992	C.3	1	GLU1	0.040	
3	   C	2571.951	789.658	-2683.992	C.2	1	GLU1	0.537	
4	   O	2572.627	790.357	-2684.761	O.2	1	GLU1	-0.582	
5	  CB	2569.919	790.483	-2682.756	C.3	1	GLU1	0.056	
6	  CG	2570.394	791.968	-2682.645	C.3	1	GLU1	0.014	
7	  CD	2569.970	792.772	-2681.429	C.2	1	GLU1	0.805	
8	 OE1	2569.242	792.270	-2680.552	O.co2	1	GLU1	-0.819	
9	 OE2	2570.400	793.942	-2681.357	O.co2	1	GLU1	-0.819	
10	   H	2570.510	787.470	-2683.992	 H	1	GLU1	0.294	
11	  HA	2570.116	790.216	-2684.913	 H	1	GLU1	0.111	
12	 2HB	2570.208	789.952	-2681.825	 H	1	GLU1	-0.017	
13	 3HB	2568.812	790.473	-2682.742	 H	1	GLU1	-0.017	
14	 2HG	2570.084	792.553	-2683.525	 H	1	GLU1	-0.043	
15	 3HG	2571.494	792.035	-2682.615	 H	1	GLU1	-0.043	
16	   N	2572.556	788.872	-2683.167	N.am	2	ASN2	-0.416	
17	  CA	2574.015	788.833	-2683.167	C.3	2	ASN2	0.014	
18	   C	2574.547	788.477	-2684.536	C.2	2	ASN2	0.597	
19	   O	2575.462	789.108	-2685.064	O.2	2	ASN2	-0.568	
20	  CB	2574.507	787.810	-2682.103	C.3	2	ASN2	-0.204	
21	  CG	2574.043	788.034	-2680.659	C.2	2	ASN2	0.713	
22	 ND2	2574.637	788.948	-2679.941	N.pl3	2	ASN2	-0.919	
23	 OD1	2573.122	787.400	-2680.165	O.2	2	ASN2	-0.593	
24	   H	2572.028	788.292	-2682.531	 H	2	ASN2	0.272	
25	  HA	2574.393	789.843	-2682.922	 H	2	ASN2	0.105	
26	 2HB	2575.611	787.751	-2682.106	 H	2	ASN2	0.080	
27	 3HB	2574.178	786.792	-2682.388	 H	2	ASN2	0.080	
28	1HD2	2574.156	789.122	-2679.054	 H	2	ASN2	0.420	
29	2HD2	2575.339	789.520	-2680.410	 H	2	ASN2	0.420	
30	   N	2574.025	787.482	-2685.170	N.am	3	PRO3	-0.255	
31	  CA	2574.477	787.073	-2686.491	C.3	3	PRO3	-0.027	
32	   C	2574.080	788.097	-2687.568	C.2	3	PRO3	0.590	
33	   O	2574.903	788.480	-2688.400	O.2	3	PRO3	-0.575	
34	  CB	2573.773	785.719	-2686.661	C.3	3	PRO3	-0.007	
35	  CG	2572.489	785.871	-2685.831	C.3	3	PRO3	0.019	
36	  CD	2572.947	786.690	-2684.621	C.3	3	PRO3	0.019	
37	  HA	2575.563	786.953	-2686.505	 H	3	PRO3	0.064	
38	 2HB	2574.396	784.937	-2686.220	 H	3	PRO3	0.025	
39	 3HB	2573.575	785.470	-2687.706	 H	3	PRO3	0.025	
40	 2HG	2572.062	784.909	-2685.540	 H	3	PRO3	0.021	
41	 3HG	2571.752	786.442	-2686.399	 H	3	PRO3	0.021	
42	 2HD	2573.336	786.040	-2683.834	 H	3	PRO3	0.039	
43	 3HD	2572.150	787.325	-2684.229	 H	3	PRO3	0.039	
44	   N	2572.875	788.557	-2687.601	N.am	4	GLU4	-0.516	
45	  CA	2572.516	789.528	-2688.631	C.3	4	GLU4	0.040	
46	   C	2573.415	790.739	-2688.569	C.2	4	GLU4	0.537	
47	   O	2573.942	791.218	-2689.583	O.2	4	GLU4	-0.582	
48	  CB	2571.027	789.947	-2688.461	C.3	4	GLU4	0.056	
49	  CG	2570.480	790.951	-2689.527	C.3	4	GLU4	0.014	
50	  CD	2569.053	791.448	-2689.384	C.2	4	GLU4	0.805	
51	 OE1	2568.326	791.050	-2688.453	O.co2	4	GLU4	-0.819	
52	 OE2	2568.664	792.277	-2690.232	O.co2	4	GLU4	-0.819	
53	   H	2572.190	788.250	-2686.925	 H	4	GLU4	0.294	
54	  HA	2572.647	789.057	-2689.622	 H	4	GLU4	0.111	
55	 2HB	2570.874	790.387	-2687.455	 H	4	GLU4	-0.017	
56	 3HB	2570.379	789.049	-2688.468	 H	4	GLU4	-0.017	
57	 2HG	2570.562	790.536	-2690.545	 H	4	GLU4	-0.043	
58	 3HG	2571.068	791.883	-2689.538	 H	4	GLU4	-0.043	
59	   N	2573.642	791.291	-2687.426	N.am	5	SER5	-0.416	
60	  CA	2574.512	792.462	-2687.367	C.3	5	SER5	-0.025	
61	   C	2575.871	792.156	-2687.952	C.2	5	SER5	0.597	
62	   O	2576.418	792.910	-2688.757	O.2	5	SER5	-0.568	
63	  CB	2574.623	792.994	-2685.917	C.3	5	SER5	0.212	
64	  OG	2575.354	792.115	-2685.056	O.3	5	SER5	-0.655	
65	   H	2573.224	790.920	-2686.585	 H	5	SER5	0.272	
66	  HA	2574.063	793.253	-2687.996	 H	5	SER5	0.084	
67	 2HB	2573.623	793.189	-2685.484	 H	5	SER5	0.035	
68	 3HB	2575.128	793.980	-2685.919	 H	5	SER5	0.035	
69	  HG	2574.865	791.290	-2685.005	 H	5	SER5	0.428	
70	   N	2576.475	791.073	-2687.598	N.am	6	ILE6	-0.416	
71	  CA	2577.788	790.778	-2688.164	C.3	6	ILE6	-0.060	
72	   C	2577.731	790.740	-2689.672	C.2	6	ILE6	0.597	
73	   O	2578.566	791.327	-2690.376	O.2	6	ILE6	-0.568	
74	  CB	2578.387	789.441	-2687.564	C.3	6	ILE6	0.130	
75	 CG1	2578.406	789.379	-2686.003	C.3	6	ILE6	-0.043	
76	 CG2	2579.828	789.139	-2688.079	C.3	6	ILE6	-0.320	
77	 CD1	2578.676	787.990	-2685.388	C.3	6	ILE6	-0.066	
78	   H	2576.046	790.439	-2686.939	 H	6	ILE6	0.272	
79	  HA	2578.462	791.612	-2687.896	 H	6	ILE6	0.087	
80	  HB	2577.729	788.615	-2687.908	 H	6	ILE6	0.019	
81	2HG1	2577.424	789.699	-2685.607	 H	6	ILE6	0.024	
82	3HG1	2579.122	790.121	-2685.598	 H	6	ILE6	0.024	
83	1HG2	2579.887	789.045	-2689.177	 H	6	ILE6	0.088	
84	2HG2	2580.551	789.921	-2687.776	 H	6	ILE6	0.088	
85	3HG2	2580.218	788.177	-2687.700	 H	6	ILE6	0.088	
86	1HD1	2577.947	787.236	-2685.743	 H	6	ILE6	0.019	
87	2HD1	2579.686	787.611	-2685.623	 H	6	ILE6	0.019	
88	3HD1	2578.599	788.020	-2684.285	 H	6	ILE6	0.019	
89	   N	2576.785	790.077	-2690.245	N.am	7	LEU7	-0.416	
90	  CA	2576.730	790.041	-2691.704	C.3	7	LEU7	-0.052	
91	   C	2576.658	791.436	-2692.277	C.2	7	LEU7	0.597	
92	   O	2577.379	791.798	-2693.219	O.2	7	LEU7	-0.568	
93	  CB	2575.527	789.181	-2692.184	C.3	7	LEU7	-0.110	
94	  CG	2575.453	787.701	-2691.718	C.3	7	LEU7	0.353	
95	 CD1	2574.263	786.996	-2692.383	C.3	7	LEU7	-0.412	
96	 CD2	2576.747	786.922	-2692.009	C.3	7	LEU7	-0.412	
97	   H	2576.093	789.590	-2689.694	 H	7	LEU7	0.272	
98	  HA	2577.672	789.600	-2692.078	 H	7	LEU7	0.092	
99	 2HB	2575.503	789.197	-2693.292	 H	7	LEU7	0.046	
100	 3HB	2574.587	789.683	-2691.880	 H	7	LEU7	0.046	
101	  HG	2575.283	787.693	-2690.621	 H	7	LEU7	-0.036	
102	1HD1	2573.306	787.505	-2692.161	 H	7	LEU7	0.100	
103	2HD1	2574.363	786.955	-2693.485	 H	7	LEU7	0.100	
104	3HD1	2574.156	785.955	-2692.027	 H	7	LEU7	0.100	
105	1HD2	2577.022	786.952	-2693.079	 H	7	LEU7	0.100	
106	2HD2	2577.600	787.333	-2691.438	 H	7	LEU7	0.100	
107	3HD2	2576.665	785.859	-2691.713	 H	7	LEU7	0.100	
108	   N	2575.821	792.277	-2691.771	N.am	8	ASP8	-0.516	
109	  CA	2575.751	793.626	-2692.325	C.3	8	ASP8	0.038	
110	   C	2577.098	794.305	-2692.268	C.2	8	ASP8	0.537	
111	   O	2577.571	794.910	-2693.243	O.2	8	ASP8	-0.582	
112	  CB	2574.674	794.466	-2691.584	C.3	8	ASP8	-0.030	
113	  CG	2574.456	795.887	-2692.125	C.2	8	ASP8	0.799	
114	 OD1	2574.520	796.085	-2693.356	O.co2	8	ASP8	-0.801	
115	 OD2	2574.264	796.813	-2691.311	O.co2	8	ASP8	-0.801	
116	   H	2575.223	792.007	-2691.003	 H	8	ASP8	0.294	
117	  HA	2575.468	793.548	-2693.392	 H	8	ASP8	0.088	
118	 2HB	2574.931	794.550	-2690.512	 H	8	ASP8	-0.012	
119	 3HB	2573.694	793.962	-2691.617	 H	8	ASP8	-0.012	
120	   N	2577.778	794.256	-2691.173	N.am	9	GLU9	-0.516	
121	  CA	2579.082	794.913	-2691.118	C.3	9	GLU9	0.040	
122	   C	2579.999	794.384	-2692.194	C.2	9	GLU9	0.537	
123	   O	2580.663	795.138	-2692.920	O.2	9	GLU9	-0.582	
124	  CB	2579.715	794.705	-2689.713	C.3	9	GLU9	0.056	
125	  CG	2581.098	795.397	-2689.484	C.3	9	GLU9	0.014	
126	  CD	2581.800	795.184	-2688.156	C.2	9	GLU9	0.805	
127	 OE1	2581.278	794.494	-2687.259	O.co2	9	GLU9	-0.819	
128	 OE2	2582.919	795.722	-2688.025	O.co2	9	GLU9	-0.819	
129	   H	2577.415	793.770	-2690.366	 H	9	GLU9	0.294	
130	  HA	2578.940	795.995	-2691.294	 H	9	GLU9	0.111	
131	 2HB	2579.827	793.621	-2689.509	 H	9	GLU9	-0.017	
132	 3HB	2579.018	795.060	-2688.929	 H	9	GLU9	-0.017	
133	 2HG	2581.026	796.488	-2689.625	 H	9	GLU9	-0.043	
134	 3HG	2581.844	795.052	-2690.218	 H	9	GLU9	-0.043	
135	   N	2580.095	793.109	-2692.363	N.am	10	HIS10	-0.416	
136	  CA	2580.982	792.597	-2693.404	C.3	10	HIS10	-0.058	
137	   C	2580.615	793.161	-2694.755	C.2	10	HIS10	0.597	
138	   O	2581.468	793.625	-2695.527	O.2	10	HIS10	-0.568	
139	  CB	2580.818	791.068	-2693.398	C.3	10	HIS10	-0.007	
140	  CG	2582.103	790.357	-2693.090	C.2	10	HIS10	0.187	
141	 CD2	2582.484	790.022	-2691.797	C.2	10	HIS10	-0.221	
142	 ND1	2583.054	789.950	-2694.022	N.2	10	HIS10	-0.543	
143	 CE1	2583.961	789.392	-2693.199	C.2	10	HIS10	0.163	
144	 NE2	2583.699	789.390	-2691.864	N.pl3	10	HIS10	-0.280	
145	   H	2579.564	792.474	-2691.784	 H	10	HIS10	0.272	
146	  HA	2582.002	792.954	-2693.179	 H	10	HIS10	0.136	
147	 2HB	2580.452	790.700	-2694.377	 H	10	HIS10	0.037	
148	 3HB	2580.062	790.732	-2692.657	 H	10	HIS10	0.037	
149	 2HD	2581.899	790.238	-2690.908	 H	10	HIS10	0.186	
150	 1HE	2584.852	788.970	-2693.646	 H	10	HIS10	0.144	
151	 2HE	2584.266	789.013	-2691.091	 H	10	HIS10	0.334	
152	   N	2579.377	793.160	-2695.118	N.am	11	VAL11	-0.416	
153	  CA	2579.022	793.706	-2696.425	C.3	11	VAL11	-0.087	
154	   C	2579.488	795.136	-2696.558	C.2	11	VAL11	0.597	
155	   O	2580.089	795.540	-2697.561	O.2	11	VAL11	-0.568	
156	  CB	2577.461	793.600	-2696.644	C.3	11	VAL11	0.299	
157	 CG1	2576.893	794.303	-2697.907	C.3	11	VAL11	-0.319	
158	 CG2	2576.936	792.146	-2696.716	C.3	11	VAL11	-0.319	
159	   H	2578.664	792.788	-2694.507	 H	11	VAL11	0.272	
160	  HA	2579.542	793.123	-2697.207	 H	11	VAL11	0.097	
161	  HB	2576.974	794.081	-2695.769	 H	11	VAL11	-0.030	
162	1HG1	2577.331	793.911	-2698.844	 H	11	VAL11	0.079	
163	2HG1	2575.793	794.197	-2697.989	 H	11	VAL11	0.079	
164	3HG1	2577.071	795.396	-2697.898	 H	11	VAL11	0.079	
165	1HG2	2577.225	791.559	-2695.825	 H	11	VAL11	0.079	
166	2HG2	2575.830	792.109	-2696.759	 H	11	VAL11	0.079	
167	3HG2	2577.317	791.604	-2697.602	 H	11	VAL11	0.079	
168	   N	2579.251	795.962	-2695.596	N.am	12	GLN12	-0.416	
169	  CA	2579.700	797.345	-2695.724	C.3	12	GLN12	-0.003	
170	   C	2581.190	797.411	-2695.962	C.2	12	GLN12	0.597	
171	   O	2581.677	798.119	-2696.841	O.2	12	GLN12	-0.568	
172	  CB	2579.310	798.113	-2694.442	C.3	12	GLN12	-0.004	
173	  CG	2579.671	799.635	-2694.411	C.3	12	GLN12	-0.064	
174	  CD	2579.370	800.449	-2693.147	C.2	12	GLN12	0.695	
175	 NE2	2578.803	799.874	-2692.118	N.pl3	12	GLN12	-0.941	
176	 OE1	2579.672	801.630	-2693.070	O.2	12	GLN12	-0.609	
177	   H	2578.762	795.657	-2694.767	 H	12	GLN12	0.272	
178	  HA	2579.201	797.801	-2696.599	 H	12	GLN12	0.085	
179	 2HB	2579.786	797.613	-2693.572	 H	12	GLN12	0.017	
180	 3HB	2578.220	798.007	-2694.278	 H	12	GLN12	0.017	
181	 2HG	2579.194	800.156	-2695.262	 H	12	GLN12	0.035	
182	 3HG	2580.755	799.776	-2694.577	 H	12	GLN12	0.035	
183	1HE2	2578.696	800.469	-2691.294	 H	12	GLN12	0.425	
184	2HE2	2578.638	798.870	-2692.220	 H	12	GLN12	0.425	
185	   N	2581.975	796.705	-2695.221	N.am	13	ARG13	-0.348	
186	  CA	2583.415	796.770	-2695.452	C.3	13	ARG13	-0.264	
187	   C	2583.751	796.397	-2696.877	C.2	13	ARG13	0.734	
188	   O	2584.520	797.069	-2697.562	O.2	13	ARG13	-0.589	
189	  CB	2584.128	795.831	-2694.438	C.3	13	ARG13	-0.001	
190	  CG	2585.673	795.984	-2694.357	C.3	13	ARG13	0.039	
191	  CD	2586.300	794.997	-2693.359	C.3	13	ARG13	0.049	
192	  NE	2587.777	795.204	-2693.309	N.pl3	13	ARG13	-0.530	
193	  CZ	2588.626	794.513	-2692.554	C.cat	13	ARG13	0.808	
194	 NH1	2588.261	793.549	-2691.755	N.pl3	13	ARG13	-0.863	
195	 NH2	2589.885	794.811	-2692.611	N.pl3	13	ARG13	-0.863	
196	   H	2581.598	796.115	-2694.492	 H	13	ARG13	0.275	
197	  HA	2583.740	797.816	-2695.295	 H	13	ARG13	0.156	
198	 2HB	2583.862	794.781	-2694.676	 H	13	ARG13	0.033	
199	 3HB	2583.703	795.999	-2693.427	 H	13	ARG13	0.033	
200	 2HG	2585.922	797.029	-2694.079	 H	13	ARG13	0.029	
201	 3HG	2586.124	795.827	-2695.359	 H	13	ARG13	0.029	
202	 2HD	2586.055	793.957	-2693.667	 H	13	ARG13	0.069	
203	 3HD	2585.844	795.144	-2692.356	 H	13	ARG13	0.069	
204	  HE	2588.229	795.926	-2693.881	 H	13	ARG13	0.346	
205	1HH1	2587.255	793.363	-2691.758	 H	13	ARG13	0.448	
206	2HH1	2588.974	793.066	-2691.207	 H	13	ARG13	0.448	
207	1HH2	2590.153	795.569	-2693.243	 H	13	ARG13	0.448	
208	2HH2	2590.521	794.270	-2692.022	 H	13	ARG13	0.448	
209	   N	2583.214	795.343	-2697.391	N.am	14	VAL14	-0.416	
210	  CA	2583.539	794.982	-2698.768	C.3	14	VAL14	-0.087	
211	   C	2583.209	796.112	-2699.714	C.2	14	VAL14	0.597	
212	   O	2584.002	796.493	-2700.584	O.2	14	VAL14	-0.568	
213	  CB	2582.766	793.665	-2699.174	C.3	14	VAL14	0.299	
214	 CG1	2582.854	793.246	-2700.667	C.3	14	VAL14	-0.319	
215	 CG2	2583.197	792.413	-2698.373	C.3	14	VAL14	-0.319	
216	   H	2582.579	794.775	-2696.848	 H	14	VAL14	0.272	
217	  HA	2584.627	794.805	-2698.843	 H	14	VAL14	0.097	
218	  HB	2581.689	793.837	-2698.958	 H	14	VAL14	-0.030	
219	1HG1	2583.896	793.069	-2700.996	 H	14	VAL14	0.079	
220	2HG1	2582.281	792.323	-2700.879	 H	14	VAL14	0.079	
221	3HG1	2582.425	794.008	-2701.346	 H	14	VAL14	0.079	
222	1HG2	2583.110	792.573	-2697.282	 H	14	VAL14	0.079	
223	2HG2	2582.561	791.537	-2698.604	 H	14	VAL14	0.079	
224	3HG2	2584.245	792.123	-2698.579	 H	14	VAL14	0.079	
225	   N	2582.064	796.698	-2699.612	N.am	15	MET15	-0.416	
226	  CA	2581.744	797.791	-2700.526	C.3	15	MET15	-0.024	
227	   C	2582.774	798.891	-2700.439	C.2	15	MET15	0.597	
228	   O	2583.276	799.401	-2701.452	O.2	15	MET15	-0.568	
229	  CB	2580.323	798.336	-2700.217	C.3	15	MET15	0.034	
230	  CG	2579.160	797.339	-2700.408	C.3	15	MET15	0.002	
231	  SD	2577.586	798.205	-2700.294	S.3	15	MET15	-0.274	
232	  CE	2576.505	796.775	-2700.156	C.3	15	MET15	-0.054	
233	   H	2581.399	796.406	-2698.911	 H	15	MET15	0.272	
234	  HA	2581.769	797.403	-2701.562	 H	15	MET15	0.088	
235	 2HB	2580.120	799.215	-2700.860	 H	15	MET15	0.024	
236	 3HB	2580.287	798.730	-2699.181	 H	15	MET15	0.024	
237	 2HG	2579.203	796.553	-2699.630	 H	15	MET15	0.044	
238	 3HG	2579.223	796.823	-2701.384	 H	15	MET15	0.044	
239	 1HE	2576.648	796.087	-2701.009	 H	15	MET15	0.068	
240	 2HE	2576.715	796.223	-2699.224	 H	15	MET15	0.068	
241	 3HE	2575.448	797.091	-2700.140	 H	15	MET15	0.068	
242	   N	2583.143	799.312	-2699.277	N.am	16	TRP16	-0.416	
243	  CA	2584.140	800.375	-2699.193	C.3	16	TRP16	-0.027	
244	   C	2585.411	799.984	-2699.909	C.2	16	TRP16	0.597	
245	   O	2585.533	798.898	-2700.471	O.2	16	TRP16	-0.568	
246	  CB	2584.447	800.667	-2697.697	C.3	16	TRP16	-0.005	
247	  CG	2583.277	801.259	-2696.906	C.2	16	TRP16	-0.141	
248	 CD1	2582.382	800.531	-2696.095	C.2	16	TRP16	-0.164	
249	 CD2	2582.820	802.560	-2696.900	C.2	16	TRP16	0.124	
250	 CE2	2581.661	802.610	-2696.085	C.2	16	TRP16	0.138	
251	 CE3	2583.292	803.726	-2697.555	C.2	16	TRP16	-0.239	
252	 NE1	2581.368	801.356	-2695.570	N.pl3	16	TRP16	-0.342	
253	 CZ2	2580.972	803.830	-2695.912	C.2	16	TRP16	-0.260	
254	 CZ3	2582.598	804.921	-2697.363	C.2	16	TRP16	-0.197	
255	 CH2	2581.456	804.974	-2696.552	C.2	16	TRP16	-0.113	
256	   H	2582.749	798.912	-2698.438	 H	16	TRP16	0.272	
257	  HA	2583.744	801.283	-2699.687	 H	16	TRP16	0.112	
258	 2HB	2585.297	801.371	-2697.612	 H	16	TRP16	0.034	
259	 3HB	2584.803	799.746	-2697.195	 H	16	TRP16	0.034	
260	 1HD	2582.443	799.461	-2695.938	 H	16	TRP16	0.206	
261	 1HE	2580.569	801.087	-2694.986	 H	16	TRP16	0.341	
262	 3HE	2584.167	803.693	-2698.189	 H	16	TRP16	0.170	
263	 2HZ	2580.087	803.873	-2695.294	 H	16	TRP16	0.157	
264	 3HZ	2582.948	805.820	-2697.849	 H	16	TRP16	0.145	
265	 2HH	2580.942	805.914	-2696.418	 H	16	TRP16	0.142	
@<TRIPOS>BOND
1 1 2 1
2 1 10 1
3 2 3 1
4 2 5 1
5 2 11 1
6 3 4 2
7 3 16 1
8 5 6 1
9 6 7 1
10 7 8 2
11 7 9 1
12 5 12 1
13 5 13 1
14 6 14 1
15 6 15 1
16 16 17 1
17 16 24 1
18 17 18 1
19 17 20 1
20 17 25 1
21 18 19 2
22 18 30 1
23 20 21 1
24 21 22 1
25 21 23 2
26 20 26 1
27 20 27 1
28 22 28 1
29 22 29 1
30 30 31 1
31 30 36 1
32 31 32 1
33 31 34 1
34 31 37 1
35 32 33 2
36 32 44 1
37 34 35 1
38 35 36 1
39 34 38 1
40 34 39 1
41 35 40 1
42 35 41 1
43 36 42 1
44 36 43 1
45 44 45 1
46 44 53 1
47 45 46 1
48 45 48 1
49 45 54 1
50 46 47 2
51 46 59 1
52 48 49 1
53 49 50 1
54 50 51 2
55 50 52 1
56 48 55 1
57 48 56 1
58 49 57 1
59 49 58 1
60 59 60 1
61 59 65 1
62 60 61 1
63 60 63 1
64 60 66 1
65 61 62 2
66 61 70 1
67 63 64 1
68 63 67 1
69 63 68 1
70 64 69 1
71 70 71 1
72 70 78 1
73 71 72 1
74 71 74 1
75 71 79 1
76 72 73 2
77 72 89 1
78 74 75 1
79 74 76 1
80 75 77 1
81 74 80 1
82 75 81 1
83 75 82 1
84 76 83 1
85 76 84 1
86 76 85 1
87 77 86 1
88 77 87 1
89 77 88 1
90 89 90 1
91 89 97 1
92 90 91 1
93 90 93 1
94 90 98 1
95 91 92 2
96 91 108 1
97 93 94 1
98 94 95 1
99 94 96 1
100 93 99 1
101 93 100 1
102 94 101 1
103 95 102 1
104 95 103 1
105 95 104 1
106 96 105 1
107 96 106 1
108 96 107 1
109 108 109 1
110 108 116 1
111 109 110 1
112 109 112 1
113 109 117 1
114 110 111 2
115 110 120 1
116 112 113 1
117 113 114 2
118 113 115 1
119 112 118 1
120 112 119 1
121 120 121 1
122 120 129 1
123 121 122 1
124 121 124 1
125 121 130 1
126 122 123 2
127 122 135 1
128 124 125 1
129 125 126 1
130 126 127 2
131 126 128 1
132 124 131 1
133 124 132 1
134 125 133 1
135 125 134 1
136 135 136 1
137 135 145 1
138 136 137 1
139 136 139 1
140 136 146 1
141 137 138 2
142 137 152 1
143 139 140 1
144 140 141 2
145 141 144 1
146 140 142 1
147 142 143 2
148 143 144 1
149 139 147 1
150 139 148 1
151 141 149 1
152 143 150 1
153 144 151 1
154 152 153 1
155 152 159 1
156 153 154 1
157 153 156 1
158 153 160 1
159 154 155 2
160 154 168 1
161 156 157 1
162 156 158 1
163 156 161 1
164 157 162 1
165 157 163 1
166 157 164 1
167 158 165 1
168 158 166 1
169 158 167 1
170 168 169 1
171 168 177 1
172 169 170 1
173 169 172 1
174 169 178 1
175 170 171 2
176 170 185 1
177 172 173 1
178 173 174 1
179 174 175 1
180 174 176 2
181 172 179 1
182 172 180 1
183 173 181 1
184 173 182 1
185 175 183 1
186 175 184 1
187 185 186 1
188 185 196 1
189 186 187 1
190 186 189 1
191 186 197 1
192 187 188 2
193 187 209 1
194 189 190 1
195 190 191 1
196 191 192 1
197 192 193 1
198 193 194 2
199 193 195 1
200 189 198 1
201 189 199 1
202 190 200 1
203 190 201 1
204 191 202 1
205 191 203 1
206 192 204 1
207 194 205 1
208 194 206 1
209 195 207 1
210 195 208 1
211 209 210 1
212 209 216 1
213 210 211 1
214 210 213 1
215 210 217 1
216 211 212 2
217 211 225 1
218 213 214 1
219 213 215 1
220 213 218 1
221 214 219 1
222 214 220 1
223 214 221 1
224 215 222 1
225 215 223 1
226 215 224 1
227 225 226 1
228 225 233 1
229 226 227 1
230 226 229 1
231 226 234 1
232 227 228 2
233 227 242 1
234 229 230 1
235 230 231 1
236 231 232 1
237 229 235 1
238 229 236 1
239 230 237 1
240 230 238 1
241 232 239 1
242 232 240 1
243 232 241 1
244 242 243 1
245 242 256 1
246 243 244 1
247 243 246 1
248 243 257 1
249 244 245 2
250 246 247 1
251 247 249 1
252 247 248 2
253 249 251 1
254 249 250 2
255 250 252 1
256 251 254 2
257 248 252 1
258 250 253 1
259 254 255 1
260 253 255 2
261 246 258 1
262 246 259 1
263 248 260 1
264 252 261 1
265 251 262 1
266 253 263 1
267 254 264 1
268 255 265 1
@<TRIPOS>SUBSTRUCTURE
1	GLU1	1	RESIDUE	1 ****	GLU
2	ASN2	16	RESIDUE	1 ****	ASN
3	PRO3	30	RESIDUE	1 ****	PRO
4	GLU4	44	RESIDUE	1 ****	GLU
5	SER5	59	RESIDUE	1 ****	SER
6	ILE6	70	RESIDUE	1 ****	ILE
7	LEU7	89	RESIDUE	1 ****	LEU
8	ASP8	108	RESIDUE	1 ****	ASP
9	GLU9	120	RESIDUE	1 ****	GLU
10	HIS10	135	RESIDUE	1 ****	HIS
11	VAL11	152	RESIDUE	1 ****	VAL
12	GLN12	168	RESIDUE	1 ****	GLN
13	ARG13	185	RESIDUE	1 ****	ARG
14	VAL14	209	RESIDUE	1 ****	VAL
15	MET15	225	RESIDUE	1 ****	MET
16	TRP16	242	RESIDUE	1 ****	TRP
