REMARK WARNING: 32 MAX_TORS EXCEEDED!!!
REMARK  69 active torsions:
REMARK  status: ('A' for Active; 'I' for Inactive)
REMARK    1  A    between atoms: N_1  and  CA_2 
REMARK    2  A    between atoms: CA_2  and  C_3 
REMARK    3  A    between atoms: CA_2  and  CB_5 
REMARK       I    between atoms: C_3  and  N_11 
REMARK    4  A    between atoms: CB_5  and  CG_6 
REMARK    5  A    between atoms: CG_6  and  CD_7 
REMARK    6  A    between atoms: N_11  and  CA_12 
REMARK    7  A    between atoms: CA_12  and  C_13 
REMARK    8  A    between atoms: CA_12  and  CB_15 
REMARK       I    between atoms: C_13  and  N_22 
REMARK    9  A    between atoms: CB_15  and  CG_16 
REMARK       I    between atoms: CG_16  and  ND2_17 
REMARK   10  A    between atoms: CA_23  and  C_24 
REMARK       I    between atoms: C_24  and  N_29 
REMARK   11  A    between atoms: N_29  and  CA_30 
REMARK   12  A    between atoms: CA_30  and  C_31 
REMARK   13  A    between atoms: CA_30  and  CB_33 
REMARK       I    between atoms: C_31  and  N_39 
REMARK   14  A    between atoms: CB_33  and  CG_34 
REMARK   15  A    between atoms: CG_34  and  CD_35 
REMARK   16  A    between atoms: N_39  and  CA_40 
REMARK   17  A    between atoms: CA_40  and  C_41 
REMARK   18  A    between atoms: CA_40  and  CB_43 
REMARK       I    between atoms: C_41  and  N_49 
REMARK   19  A    between atoms: CB_43  and  CG_44 
REMARK   20  A    between atoms: CG_44  and  CD_45 
REMARK   21  A    between atoms: N_49  and  CA_50 
REMARK   22  A    between atoms: CA_50  and  C_51 
REMARK   23  A    between atoms: CA_50  and  CB_53 
REMARK       I    between atoms: C_51  and  N_58 
REMARK   24  A    between atoms: CB_53  and  CG1_54 
REMARK   25  A    between atoms: N_58  and  CA_59 
REMARK   26  A    between atoms: CA_59  and  C_60 
REMARK   27  A    between atoms: CA_59  and  CB_62 
REMARK       I    between atoms: C_60  and  N_67 
REMARK   28  A    between atoms: CB_62  and  CG_63 
REMARK   29  A    between atoms: N_67  and  CA_68 
REMARK   30  A    between atoms: CA_68  and  C_69 
REMARK   31  A    between atoms: CA_68  and  CB_71 
REMARK       I    between atoms: C_69  and  N_76 
REMARK   32  A    between atoms: CB_71  and  CG_72 
REMARK   33  A    between atoms: N_76  and  CA_77 
REMARK   34  A    between atoms: CA_77  and  C_78 
REMARK   35  A    between atoms: CA_77  and  CB_80 
REMARK       I    between atoms: C_78  and  N_86 
REMARK   36  A    between atoms: CB_80  and  CG_81 
REMARK   37  A    between atoms: CG_81  and  CD_82 
REMARK   38  A    between atoms: N_86  and  CA_87 
REMARK   39  A    between atoms: CA_87  and  C_88 
REMARK   40  A    between atoms: CA_87  and  CB_90 
REMARK       I    between atoms: C_88  and  N_98 
REMARK   41  A    between atoms: CB_90  and  CG_91 
REMARK   42  A    between atoms: N_98  and  CA_99 
REMARK   43  A    between atoms: CA_99  and  C_100 
REMARK   44  A    between atoms: CA_99  and  CB_102 
REMARK       I    between atoms: C_100  and  N_106 
REMARK   45  A    between atoms: N_106  and  CA_107 
REMARK   46  A    between atoms: CA_107  and  C_108 
REMARK   47  A    between atoms: CA_107  and  CB_110 
REMARK       I    between atoms: C_108  and  N_118 
REMARK   48  A    between atoms: CB_110  and  CG_111 
REMARK   49  A    between atoms: CG_111  and  CD_112 
REMARK       I    between atoms: CD_112  and  NE2_113 
REMARK   50  A    between atoms: N_118  and  CA_119 
REMARK   51  A    between atoms: CA_119  and  C_120 
REMARK   52  A    between atoms: CA_119  and  CB_122 
REMARK       I    between atoms: C_120  and  N_135 
REMARK   53  A    between atoms: CB_122  and  CG_123 
REMARK   54  A    between atoms: CG_123  and  CD_124 
REMARK   55  A    between atoms: CD_124  and  NE_125 
REMARK       I    between atoms: NE_125  and  CZ_126 
REMARK       I    between atoms: CZ_126  and  NH1_127 
REMARK       I    between atoms: CZ_126  and  NH2_128 
REMARK   56  A    between atoms: N_135  and  CA_136 
REMARK   57  A    between atoms: CA_136  and  C_137 
REMARK   58  A    between atoms: CA_136  and  CB_139 
REMARK       I    between atoms: C_137  and  N_143 
REMARK   59  A    between atoms: N_143  and  CA_144 
REMARK   60  A    between atoms: CA_144  and  C_145 
REMARK   61  A    between atoms: CA_144  and  CB_147 
REMARK       I    between atoms: C_145  and  N_152 
REMARK   62  A    between atoms: CB_147  and  CG_148 
REMARK   63  A    between atoms: CG_148  and  SD_149 
REMARK   64  A    between atoms: N_152  and  CA_153 
REMARK   65  A    between atoms: CA_153  and  C_154 
REMARK   66  A    between atoms: CA_153  and  CB_156 
REMARK   67  A    between atoms: CB_156  and  CG_157 
REMARK   68  A    between atoms: CG_157  and  CD_158 
REMARK   69  A    between atoms: CD_158  and  NE_159 
REMARK       I    between atoms: NE_159  and  CZ_160 
REMARK       I    between atoms: CZ_160  and  NH1_161 
ROOT
ATOM      1  C   GLU d   9     846.169 229.239-807.163  0.00  0.00     0.241 C 
ATOM      2  O   GLU d   9     846.833 229.994-807.888  0.00  0.00    -0.271 OA
ATOM      3  N   HIS d  10     846.266 227.964-807.333  0.00  0.00    -0.346 N 
ATOM      4  H   HIS d  10     845.735 227.328-806.755  0.00  0.00     0.163 HD
ENDROOT
BRANCH   1   5
ATOM      5  CA  GLU d   9     845.250 229.766-806.088  0.00  0.00     0.177 C 
BRANCH   5   6
ATOM      6  N   GLU d   9     843.947 229.108-806.144  0.00  0.00    -0.346 N 
ATOM      7  C   ASP d   8     843.268 229.158-807.240  0.00  0.00     0.241 C 
ATOM      8  O   ASP d   8     843.742 229.764-808.214  0.00  0.00    -0.271 OA
ATOM      9  H   GLU d   9     843.584 228.621-805.338  0.00  0.00     0.163 HD
BRANCH   7  10
ATOM     10  CA  ASP d   8     841.922 228.478-807.298  0.00  0.00     0.186 C 
BRANCH  10  11
ATOM     11  N   ASP d   8     841.993 227.128-806.746  0.00  0.00    -0.346 N 
ATOM     12  C   LEU d   7     842.831 226.288-807.252  0.00  0.00     0.241 C 
ATOM     13  O   LEU d   7     843.552 226.651-808.193  0.00  0.00    -0.271 OA
ATOM     14  H   ASP d   8     841.394 226.857-805.979  0.00  0.00     0.163 HD
BRANCH  12  15
ATOM     15  CA  LEU d   7     842.903 224.893-806.680  0.00  0.00     0.177 C 
BRANCH  15  16
ATOM     16  N   LEU d   7     842.957 224.928-805.221  0.00  0.00    -0.346 N 
ATOM     17  C   ILE d   6     843.902 225.592-804.646  0.00  0.00     0.241 C 
ATOM     18  O   ILE d   6     844.737 226.180-805.350  0.00  0.00    -0.271 OA
ATOM     19  H   LEU d   7     842.265 224.441-804.670  0.00  0.00     0.163 HD
BRANCH  17  20
ATOM     20  CA  ILE d   6     843.958 225.629-803.139  0.00  0.00     0.180 C 
BRANCH  20  21
ATOM     21  N   ILE d   6     842.645 225.923-802.573  0.00  0.00    -0.346 N 
ATOM     22  C   GLU d   5     842.040 227.006-802.927  0.00  0.00     0.241 C 
ATOM     23  O   GLU d   5     842.592 227.765-803.737  0.00  0.00    -0.271 OA
ATOM     24  H   ILE d   6     842.216 225.288-801.915  0.00  0.00     0.163 HD
BRANCH  22  25
ATOM     25  CA  GLU d   5     840.682 227.310-802.343  0.00  0.00     0.177 C 
BRANCH  25  26
ATOM     26  N   GLU d   5     839.812 226.139-802.402  0.00  0.00    -0.346 N 
ATOM     27  C   GLU d   4     839.585 225.586-803.545  0.00  0.00     0.241 C 
ATOM     28  O   GLU d   4     840.111 226.065-804.560  0.00  0.00    -0.271 OA
ATOM     29  H   GLU d   5     839.395 225.767-801.561  0.00  0.00     0.163 HD
BRANCH  27  30
ATOM     30  CA  GLU d   4     838.686 224.374-803.607  0.00  0.00     0.177 C 
BRANCH  30  31
ATOM     31  N   GLU d   4     839.046 223.404-802.577  0.00  0.00    -0.346 N 
ATOM     32  C   PRO d   3     840.251 222.944-802.545  0.00  0.00     0.241 C 
ATOM     33  O   PRO d   3     841.074 223.327-803.376  0.00  0.00    -0.271 OA
ATOM     34  H   GLU d   4     838.362 223.097-801.900  0.00  0.00     0.163 HD
BRANCH  32  35
ATOM     35  CA  PRO d   3     840.649 221.920-801.468  0.00  0.00     0.179 C 
ATOM     36  N   PRO d   3     840.197 222.329-800.146  0.00  0.00    -0.337 N 
ATOM     37  C   ASN d   2     840.718 223.325-799.512  0.00  0.00     0.243 C 
ATOM     38  CD  PRO d   3     839.119 221.536-799.597  0.00  0.00     0.127 C 
ATOM     39  O   ASN d   2     841.633 223.955-800.041  0.00  0.00    -0.271 OA
ATOM     40  CG  PRO d   3     838.662 220.717-800.807  0.00  0.00     0.022 C 
ATOM     41  CB  PRO d   3     839.945 220.565-801.637  0.00  0.00     0.037 C 
BRANCH  37  42
ATOM     42  CA  ASN d   2     840.187 223.680-798.143  0.00  0.00     0.185 C 
BRANCH  42  43
ATOM     43  N   ASN d   2     838.728 223.719-798.143  0.00  0.00    -0.346 N 
ATOM     44  C   GLU d   1     838.123 224.504-798.969  0.00  0.00     0.242 C 
ATOM     45  O   GLU d   1     838.799 225.204-799.737  0.00  0.00    -0.271 OA
ATOM     46  H   ASN d   2     838.200 223.139-797.507  0.00  0.00     0.163 HD
BRANCH  44  47
ATOM     47  CA  GLU d   1     836.614 224.544-798.969  0.00  0.00     0.191 C 
BRANCH  47  48
ATOM     48  N   GLU d   1     836.055 223.195-798.969  0.00  0.00    -0.326 NA
ATOM     49  H   GLU d   1     836.682 222.316-798.969  0.00  0.00     0.180 HD
ENDBRANCH  47  48
BRANCH  47  50
ATOM     50  CB  GLU d   1     836.091 225.329-797.732  0.00  0.00     0.047 C 
BRANCH  50  51
ATOM     51  CG  GLU d   1     836.566 226.814-797.620  0.00  0.00     0.116 C 
BRANCH  51  52
ATOM     52  CD  GLU d   1     836.142 227.618-796.406  0.00  0.00     0.172 C 
ATOM     53  OE1 GLU d   1     835.414 227.116-795.528  0.00  0.00    -0.648 OA
ATOM     54  OE2 GLU d   1     836.572 228.788-796.333  0.00  0.00    -0.648 OA
ENDBRANCH  51  52
ENDBRANCH  50  51
ENDBRANCH  47  50
ENDBRANCH  44  47
ENDBRANCH  42  43
BRANCH  42  55
ATOM     55  CB  ASN d   2     840.679 222.657-797.079  0.00  0.00     0.137 C 
BRANCH  55  56
ATOM     56  CG  ASN d   2     840.216 222.881-795.636  0.00  0.00     0.217 C 
ATOM     57  ND2 ASN d   2     840.810 223.796-794.918  0.00  0.00    -0.370 N 
ATOM     58 21HD ASN d   2     840.330 223.969-794.031  0.00  0.00     0.159 HD
ATOM     59 22HD ASN d   2     841.512 224.367-795.387  0.00  0.00     0.159 HD
ATOM     60  OD1 ASN d   2     839.296 222.247-795.142  0.00  0.00    -0.274 OA
ENDBRANCH  55  56
ENDBRANCH  42  55
ENDBRANCH  37  42
ENDBRANCH  32  35
ENDBRANCH  30  31
BRANCH  30  61
ATOM     61  CB  GLU d   4     837.198 224.793-803.436  0.00  0.00     0.045 C 
BRANCH  61  62
ATOM     62  CG  GLU d   4     836.649 225.796-804.502  0.00  0.00     0.116 C 
BRANCH  62  63
ATOM     63  CD  GLU d   4     835.223 226.293-804.359  0.00  0.00     0.172 C 
ATOM     64  OE1 GLU d   4     834.496 225.894-803.428  0.00  0.00    -0.648 OA
ATOM     65  OE2 GLU d   4     834.833 227.122-805.207  0.00  0.00    -0.648 OA
ENDBRANCH  62  63
ENDBRANCH  61  62
ENDBRANCH  30  61
ENDBRANCH  27  30
ENDBRANCH  25  26
BRANCH  25  66
ATOM     66  CB  GLU d   5     840.819 227.788-800.869  0.00  0.00     0.045 C 
BRANCH  66  67
ATOM     67  CG  GLU d   5     841.685 229.071-800.650  0.00  0.00     0.116 C 
BRANCH  67  68
ATOM     68  CD  GLU d   5     841.909 229.555-799.229  0.00  0.00     0.172 C 
ATOM     69  OE1 GLU d   5     841.399 228.960-798.261  0.00  0.00    -0.648 OA
ATOM     70  OE2 GLU d   5     842.637 230.561-799.092  0.00  0.00    -0.648 OA
ENDBRANCH  67  68
ENDBRANCH  66  67
ENDBRANCH  25  66
ENDBRANCH  22  25
ENDBRANCH  20  21
BRANCH  20  71
ATOM     71  CB  ILE d   6     844.558 224.293-802.539  0.00  0.00     0.013 C 
ATOM     72  CG2 ILE d   6     846.000 223.992-803.053  0.00  0.00     0.012 C 
BRANCH  71  73
ATOM     73  CG1 ILE d   6     844.576 224.230-800.978  0.00  0.00     0.002 C 
ATOM     74  CD1 ILE d   6     844.846 222.841-800.363  0.00  0.00     0.005 C 
ENDBRANCH  71  73
ENDBRANCH  20  71
ENDBRANCH  17  20
ENDBRANCH  15  16
BRANCH  15  75
ATOM     75  CB  LEU d   7     841.701 224.032-807.161  0.00  0.00     0.038 C 
BRANCH  75  76
ATOM     76  CG  LEU d   7     841.628 222.553-806.695  0.00  0.00    -0.020 C 
ATOM     77  CD1 LEU d   7     840.439 221.846-807.362  0.00  0.00     0.009 C 
ATOM     78  CD2 LEU d   7     842.922 221.774-806.986  0.00  0.00     0.009 C 
ENDBRANCH  75  76
ENDBRANCH  15  75
ENDBRANCH  12  15
ENDBRANCH  10  11
BRANCH  10  79
ATOM     79  CB  ASP d   8     840.843 229.316-806.557  0.00  0.00     0.147 C 
BRANCH  79  80
ATOM     80  CG  ASP d   8     840.624 230.737-807.097  0.00  0.00     0.175 C 
ATOM     81  OD1 ASP d   8     840.689 230.937-808.328  0.00  0.00    -0.648 OA
ATOM     82  OD2 ASP d   8     840.431 231.663-806.282  0.00  0.00    -0.648 OA
ENDBRANCH  79  80
ENDBRANCH  10  79
ENDBRANCH   7  10
ENDBRANCH   5   6
BRANCH   5  83
ATOM     83  CB  GLU d   9     845.883 229.558-804.682  0.00  0.00     0.045 C 
BRANCH  83  84
ATOM     84  CG  GLU d   9     847.265 230.251-804.452  0.00  0.00     0.116 C 
BRANCH  84  85
ATOM     85  CD  GLU d   9     847.966 230.037-803.123  0.00  0.00     0.172 C 
ATOM     86  OE1 GLU d   9     847.444 229.346-802.227  0.00  0.00    -0.648 OA
ATOM     87  OE2 GLU d   9     849.085 230.575-802.990  0.00  0.00    -0.648 OA
ENDBRANCH  84  85
ENDBRANCH  83  84
ENDBRANCH   5  83
ENDBRANCH   1   5
BRANCH   3  88
ATOM     88  CA  HIS d  10     847.155 227.454-808.373  0.00  0.00     0.182 C 
BRANCH  88  89
ATOM     89  C   HIS d  10     846.789 228.019-809.724  0.00  0.00     0.241 C 
ATOM     90  O   HIS d  10     847.641 228.484-810.495  0.00  0.00    -0.271 OA
ATOM     91  N   VAL d  11     845.551 228.017-810.088  0.00  0.00    -0.346 N 
ATOM     92  H   VAL d  11     844.838 227.644-809.478  0.00  0.00     0.163 HD
BRANCH  91  93
ATOM     93  CA  VAL d  11     845.196 228.564-811.395  0.00  0.00     0.180 C 
BRANCH  93  94
ATOM     94  C   VAL d  11     845.660 229.995-811.526  0.00  0.00     0.241 C 
ATOM     95  O   VAL d  11     846.262 230.400-812.529  0.00  0.00    -0.271 OA
ATOM     96  N   GLN d  12     845.422 230.820-810.564  0.00  0.00    -0.346 N 
ATOM     97  H   GLN d  12     844.933 230.513-809.735  0.00  0.00     0.163 HD
BRANCH  96  98
ATOM     98  CA  GLN d  12     845.870 232.203-810.690  0.00  0.00     0.177 C 
BRANCH  98  99
ATOM     99  C   GLN d  12     847.360 232.271-810.927  0.00  0.00     0.241 C 
ATOM    100  O   GLN d  12     847.847 232.980-811.805  0.00  0.00    -0.271 OA
ATOM    101  N   ARG d  13     848.145 231.565-810.186  0.00  0.00    -0.346 N 
ATOM    102  H   ARG d  13     847.768 230.974-809.458  0.00  0.00     0.163 HD
BRANCH 101 103
ATOM    103  CA  ARG d  13     849.585 231.631-810.416  0.00  0.00     0.176 C 
BRANCH 103 104
ATOM    104  C   ARG d  13     849.922 231.261-811.841  0.00  0.00     0.241 C 
ATOM    105  O   ARG d  13     850.690 231.933-812.525  0.00  0.00    -0.271 OA
ATOM    106  N   VAL d  14     849.387 230.206-812.356  0.00  0.00    -0.346 N 
ATOM    107  H   VAL d  14     848.752 229.637-811.815  0.00  0.00     0.163 HD
BRANCH 106 108
ATOM    108  CA  VAL d  14     849.712 229.847-813.734  0.00  0.00     0.180 C 
BRANCH 108 109
ATOM    109  C   VAL d  14     849.382 230.977-814.679  0.00  0.00     0.241 C 
ATOM    110  O   VAL d  14     850.176 231.360-815.548  0.00  0.00    -0.271 OA
ATOM    111  N   MET d  15     848.237 231.563-814.578  0.00  0.00    -0.346 N 
ATOM    112  H   MET d  15     847.572 231.269-813.877  0.00  0.00     0.163 HD
BRANCH 111 113
ATOM    113  CA  MET d  15     847.917 232.656-815.491  0.00  0.00     0.177 C 
BRANCH 113 114
ATOM    114  C   MET d  15     848.946 233.756-815.403  0.00  0.00     0.241 C 
ATOM    115  O   MET d  15     849.449 234.267-816.415  0.00  0.00    -0.271 OA
ATOM    116  N   ARG d  16     849.314 234.177-814.240  0.00  0.00    -0.347 N 
ATOM    117  H   ARG d  16     848.919 233.777-813.401  0.00  0.00     0.163 HD
BRANCH 116 118
ATOM    118  CA  ARG d  16     850.310 235.241-814.156  0.00  0.00     0.162 C 
BRANCH 118 119
ATOM    119  C   ARG d  16     851.581 234.849-814.872  0.00  0.00     0.219 C 
ATOM    120  O   ARG d  16     851.696 233.773-815.454  0.00  0.00    -0.287 OA
ENDBRANCH 118 119
BRANCH 118 121
ATOM    121  CB  ARG d  16     850.579 235.559-812.658  0.00  0.00     0.035 C 
BRANCH 121 122
ATOM    122  CG  ARG d  16     851.403 236.848-812.384  0.00  0.00     0.023 C 
BRANCH 122 123
ATOM    123  CD  ARG d  16     851.652 237.067-810.883  0.00  0.00     0.138 C 
BRANCH 123 124
ATOM    124  NE  ARG d  16     852.428 238.327-810.681  0.00  0.00    -0.227 N 
ATOM    125  CZ  ARG d  16     852.819 238.809-809.506  0.00  0.00     0.665 C 
ATOM    126  NH1 ARG d  16     852.571 238.224-808.367  0.00  0.00    -0.235 N 
ATOM    127  NH2 ARG d  16     853.482 239.922-809.487  0.00  0.00    -0.235 N 
ATOM    128 11HH ARG d  16     852.046 237.351-808.452  0.00  0.00     0.174 HD
ATOM    129 12HH ARG d  16     852.905 238.660-807.506  0.00  0.00     0.174 HD
ATOM    130 21HH ARG d  16     853.668 240.365-810.388  0.00  0.00     0.174 HD
ATOM    131 22HH ARG d  16     853.772 240.277-808.574  0.00  0.00     0.174 HD
ATOM    132  HE  ARG d  16     852.706 238.908-811.478  0.00  0.00     0.177 HD
ENDBRANCH 123 124
ENDBRANCH 122 123
ENDBRANCH 121 122
ENDBRANCH 118 121
ENDBRANCH 116 118
ENDBRANCH 113 114
BRANCH 113 133
ATOM    133  CB  MET d  15     846.495 233.200-815.183  0.00  0.00     0.045 C 
BRANCH 133 134
ATOM    134  CG  MET d  15     845.333 232.202-815.375  0.00  0.00     0.076 C 
BRANCH 134 135
ATOM    135  SD  MET d  15     843.759 233.067-815.262  0.00  0.00    -0.173 SA
ATOM    136  CE  MET d  15     842.678 231.637-815.126  0.00  0.00     0.089 C 
ENDBRANCH 134 135
ENDBRANCH 133 134
ENDBRANCH 113 133
ENDBRANCH 111 113
ENDBRANCH 108 109
BRANCH 108 137
ATOM    137  CB  VAL d  14     848.941 228.530-814.141  0.00  0.00     0.009 C 
ATOM    138  CG1 VAL d  14     849.031 228.112-815.635  0.00  0.00     0.012 C 
ATOM    139  CG2 VAL d  14     849.373 227.278-813.341  0.00  0.00     0.012 C 
ENDBRANCH 108 137
ENDBRANCH 106 108
ENDBRANCH 103 104
BRANCH 103 140
ATOM    140  CB  ARG d  13     850.298 230.692-809.402  0.00  0.00     0.036 C 
BRANCH 140 141
ATOM    141  CG  ARG d  13     851.843 230.846-809.320  0.00  0.00     0.023 C 
BRANCH 141 142
ATOM    142  CD  ARG d  13     852.470 229.858-808.323  0.00  0.00     0.138 C 
BRANCH 142 143
ATOM    143  NE  ARG d  13     853.947 230.066-808.271  0.00  0.00    -0.227 N 
ATOM    144  CZ  ARG d  13     854.795 229.375-807.516  0.00  0.00     0.665 C 
ATOM    145  NH1 ARG d  13     854.430 228.410-806.719  0.00  0.00    -0.235 N 
ATOM    146  NH2 ARG d  13     856.054 229.674-807.572  0.00  0.00    -0.235 N 
ATOM    147 11HH ARG d  13     853.424 228.223-806.723  0.00  0.00     0.174 HD
ATOM    148 12HH ARG d  13     855.143 227.927-806.170  0.00  0.00     0.174 HD
ATOM    149 21HH ARG d  13     856.322 230.433-808.203  0.00  0.00     0.174 HD
ATOM    150 22HH ARG d  13     856.689 229.133-806.983  0.00  0.00     0.174 HD
ATOM    151  HE  ARG d  13     854.398 230.789-808.841  0.00  0.00     0.177 HD
ENDBRANCH 142 143
ENDBRANCH 141 142
ENDBRANCH 140 141
ENDBRANCH 103 140
ENDBRANCH 101 103
ENDBRANCH  98  99
BRANCH  98 152
ATOM    152  CB  GLN d  12     845.478 232.970-809.407  0.00  0.00     0.044 C 
BRANCH 152 153
ATOM    153  CG  GLN d  12     845.837 234.492-809.375  0.00  0.00     0.105 C 
BRANCH 153 154
ATOM    154  CD  GLN d  12     845.534 235.305-808.110  0.00  0.00     0.215 C 
ATOM    155  NE2 GLN d  12     844.967 234.728-807.082  0.00  0.00    -0.370 N 
ATOM    156 21HE GLN d  12     844.859 235.322-806.258  0.00  0.00     0.159 HD
ATOM    157 22HE GLN d  12     844.804 233.724-807.186  0.00  0.00     0.159 HD
ATOM    158  OE1 GLN d  12     845.835 236.486-808.032  0.00  0.00    -0.274 OA
ENDBRANCH 153 154
ENDBRANCH 152 153
ENDBRANCH  98 152
ENDBRANCH  96  98
ENDBRANCH  93  94
BRANCH  93 159
ATOM    159  CB  VAL d  11     843.635 228.456-811.615  0.00  0.00     0.009 C 
ATOM    160  CG1 VAL d  11     843.067 229.161-812.878  0.00  0.00     0.012 C 
ATOM    161  CG2 VAL d  11     843.112 227.002-811.690  0.00  0.00     0.012 C 
ENDBRANCH  93 159
ENDBRANCH  91  93
ENDBRANCH  88  89
BRANCH  88 162
ATOM    162  CB  HIS d  10     846.992 225.925-808.369  0.00  0.00     0.095 C 
BRANCH 162 163
ATOM    163  CG  HIS d  10     848.278 225.215-808.060  0.00  0.00     0.053 A 
ATOM    164  CD2 HIS d  10     848.658 224.879-806.768  0.00  0.00     0.116 A 
ATOM    165  NE2 HIS d  10     849.873 224.248-806.834  0.00  0.00    -0.359 N 
ATOM    166  CE1 HIS d  10     850.137 224.252-808.169  0.00  0.00     0.207 A 
ATOM    167  2HE HIS d  10     850.440 223.871-806.061  0.00  0.00     0.166 HD
ATOM    168  ND1 HIS d  10     849.230 224.810-808.993  0.00  0.00    -0.247 NA
ENDBRANCH 162 163
ENDBRANCH  88 162
ENDBRANCH   3  88
TORSDOF 69
