@<TRIPOS>MOLECULE
1-5
267 268 16              
SMALL
USER_CHARGES
@<TRIPOS>ATOM
1	   N	35.466	3.286	-16.276	N.3	1	MET1	-0.416	
2	  CA	35.954	4.662	-16.276	C.3	1	MET1	-0.024	
3	   C	37.463	4.702	-16.276	C.2	1	MET1	0.597	
4	   O	38.100	5.437	-17.046	O.2	1	MET1	-0.568	
5	  CB	35.379	5.425	-15.051	C.3	1	MET1	0.034	
6	  CG	33.843	5.575	-15.010	C.3	1	MET1	0.002	
7	  SD	33.376	6.719	-13.701	S.3	1	MET1	-0.274	
8	  CE	31.613	6.370	-13.659	C.3	1	MET1	-0.054	
9	   H	36.139	2.441	-16.276	 H	1	MET1	0.272	
10	  HA	35.616	5.156	-17.206	 H	1	MET1	0.088	
11	 2HB	35.817	6.441	-15.014	 H	1	MET1	0.024	
12	 3HB	35.714	4.938	-14.113	 H	1	MET1	0.024	
13	 2HG	33.371	4.592	-14.823	 H	1	MET1	0.044	
14	 3HG	33.444	5.941	-15.974	 H	1	MET1	0.044	
15	 1HE	31.156	6.518	-14.654	 H	1	MET1	0.068	
16	 2HE	31.435	5.326	-13.346	 H	1	MET1	0.068	
17	 3HE	31.104	7.036	-12.941	 H	1	MET1	0.068	
18	   N	38.109	3.950	-15.451	N.am	2	ASN2	-0.416	
19	  CA	39.568	3.989	-15.451	C.3	2	ASN2	0.014	
20	   C	40.117	3.663	-16.820	C.2	2	ASN2	0.597	
21	   O	40.996	4.341	-17.350	O.2	2	ASN2	-0.568	
22	  CB	40.115	2.994	-14.387	C.3	2	ASN2	-0.204	
23	  CG	39.641	3.193	-12.944	C.2	2	ASN2	0.713	
24	 ND2	40.186	4.138	-12.226	N.pl3	2	ASN2	-0.919	
25	 OD1	38.756	2.511	-12.449	O.2	2	ASN2	-0.593	
26	   H	37.613	3.343	-14.814	 H	2	ASN2	0.272	
27	  HA	39.891	5.018	-15.206	 H	2	ASN2	0.105	
28	 2HB	41.221	2.994	-14.392	 H	2	ASN2	0.080	
29	 3HB	39.840	1.960	-14.673	 H	2	ASN2	0.080	
30	1HD2	39.697	4.285	-11.339	 H	2	ASN2	0.420	
31	2HD2	40.856	4.746	-12.696	 H	2	ASN2	0.420	
32	   N	39.649	2.641	-17.454	N.am	3	PRO3	-0.255	
33	  CA	40.121	2.256	-18.776	C.3	3	PRO3	-0.027	
34	   C	39.668	3.257	-19.853	C.2	3	PRO3	0.590	
35	   O	40.470	3.684	-20.685	O.2	3	PRO3	-0.575	
36	  CB	39.491	0.866	-18.945	C.3	3	PRO3	-0.007	
37	  CG	38.202	0.949	-18.114	C.3	3	PRO3	0.019	
38	  CD	38.615	1.791	-16.905	C.3	3	PRO3	0.019	
39	  HA	41.212	2.195	-18.790	 H	3	PRO3	0.064	
40	 2HB	40.155	0.119	-18.505	 H	3	PRO3	0.025	
41	 3HB	39.306	0.607	-19.990	 H	3	PRO3	0.025	
42	 2HG	37.826	-0.035	-17.823	 H	3	PRO3	0.021	
43	 3HG	37.434	1.480	-18.681	 H	3	PRO3	0.021	
44	 2HD	39.039	1.164	-16.117	 H	3	PRO3	0.039	
45	 3HD	37.786	2.384	-16.511	 H	3	PRO3	0.039	
46	   N	38.441	3.652	-19.884	N.am	4	GLU4	-0.516	
47	  CA	38.029	4.602	-20.914	C.3	4	GLU4	0.040	
48	   C	38.862	5.860	-20.853	C.2	4	GLU4	0.537	
49	   O	39.361	6.367	-21.868	O.2	4	GLU4	-0.582	
50	  CB	36.520	4.941	-20.743	C.3	4	GLU4	0.056	
51	  CG	35.919	5.913	-21.808	C.3	4	GLU4	0.014	
52	  CD	34.468	6.333	-21.664	C.2	4	GLU4	0.805	
53	 OE1	33.764	5.896	-20.732	O.co2	4	GLU4	-0.819	
54	 OE2	34.034	7.140	-22.512	O.co2	4	GLU4	-0.819	
55	   H	37.774	3.309	-19.207	 H	4	GLU4	0.294	
56	  HA	38.185	4.139	-21.905	 H	4	GLU4	0.111	
57	 2HB	36.345	5.372	-19.736	 H	4	GLU4	-0.017	
58	 3HB	35.922	4.009	-20.749	 H	4	GLU4	-0.017	
59	 2HG	36.022	5.503	-22.826	 H	4	GLU4	-0.043	
60	 3HG	36.456	6.876	-21.819	 H	4	GLU4	-0.043	
61	   N	39.060	6.424	-19.710	N.am	5	SER5	-0.416	
62	  CA	39.865	7.640	-19.652	C.3	5	SER5	-0.025	
63	   C	41.238	7.408	-20.238	C.2	5	SER5	0.597	
64	   O	41.744	8.190	-21.044	O.2	5	SER5	-0.568	
65	  CB	39.949	8.178	-18.202	C.3	5	SER5	0.212	
66	  OG	40.727	7.339	-17.341	O.3	5	SER5	-0.655	
67	   H	38.664	6.030	-18.868	 H	5	SER5	0.272	
68	  HA	39.374	8.405	-20.281	 H	5	SER5	0.084	
69	 2HB	38.940	8.318	-17.768	 H	5	SER5	0.035	
70	 3HB	40.401	9.189	-18.204	 H	5	SER5	0.035	
71	  HG	40.284	6.489	-17.290	 H	5	SER5	0.428	
72	   N	41.900	6.359	-19.885	N.am	6	ILE6	-0.416	
73	  CA	43.227	6.135	-20.452	C.3	6	ILE6	-0.060	
74	   C	43.171	6.094	-21.959	C.2	6	ILE6	0.597	
75	   O	43.973	6.726	-22.664	O.2	6	ILE6	-0.568	
76	  CB	43.898	4.833	-19.852	C.3	6	ILE6	0.130	
77	 CG1	43.922	4.772	-18.291	C.3	6	ILE6	-0.043	
78	 CG2	45.353	4.609	-20.368	C.3	6	ILE6	-0.320	
79	 CD1	44.266	3.399	-17.676	C.3	6	ILE6	-0.066	
80	   H	41.507	5.702	-19.225	 H	6	ILE6	0.272	
81	  HA	43.856	7.004	-20.184	 H	6	ILE6	0.087	
82	  HB	43.285	3.973	-20.196	 H	6	ILE6	0.019	
83	2HG1	42.924	5.039	-17.895	 H	6	ILE6	0.024	
84	3HG1	44.597	5.551	-17.887	 H	6	ILE6	0.024	
85	1HG2	45.416	4.519	-21.466	 H	6	ILE6	0.088	
86	2HG2	46.033	5.429	-20.066	 H	6	ILE6	0.088	
87	3HG2	45.795	3.669	-19.990	 H	6	ILE6	0.088	
88	1HD1	43.579	2.607	-18.030	 H	6	ILE6	0.019	
89	2HD1	45.296	3.075	-17.912	 H	6	ILE6	0.019	
90	3HD1	44.189	3.425	-16.573	 H	6	ILE6	0.019	
91	   N	42.262	5.381	-22.533	N.am	7	LEU7	-0.416	
92	  CA	42.208	5.342	-23.991	C.3	7	LEU7	-0.052	
93	   C	42.061	6.731	-24.563	C.2	7	LEU7	0.597	
94	   O	42.761	7.132	-25.506	O.2	7	LEU7	-0.568	
95	  CB	41.053	4.418	-24.471	C.3	7	LEU7	-0.110	
96	  CG	41.060	2.937	-24.004	C.3	7	LEU7	0.353	
97	 CD1	39.909	2.168	-24.669	C.3	7	LEU7	-0.412	
98	 CD2	42.393	2.229	-24.297	C.3	7	LEU7	-0.412	
99	   H	41.598	4.857	-21.981	 H	7	LEU7	0.272	
100	  HA	43.172	4.953	-24.366	 H	7	LEU7	0.092	
101	 2HB	41.028	4.433	-25.578	 H	7	LEU7	0.046	
102	 3HB	40.088	4.870	-24.166	 H	7	LEU7	0.046	
103	  HG	40.892	2.920	-22.907	 H	7	LEU7	-0.036	
104	1HD1	38.926	2.625	-24.446	 H	7	LEU7	0.100	
105	2HD1	40.010	2.133	-25.770	 H	7	LEU7	0.100	
106	3HD1	39.859	1.123	-24.313	 H	7	LEU7	0.100	
107	1HD2	42.666	2.274	-25.367	 H	7	LEU7	0.100	
108	2HD2	43.224	2.685	-23.726	 H	7	LEU7	0.100	
109	3HD2	42.369	1.163	-24.000	 H	7	LEU7	0.100	
110	   N	41.180	7.526	-24.057	N.am	8	ASP8	-0.516	
111	  CA	41.037	8.870	-24.610	C.3	8	ASP8	0.038	
112	   C	42.345	9.621	-24.553	C.2	8	ASP8	0.537	
113	   O	42.784	10.251	-25.528	O.2	8	ASP8	-0.582	
114	  CB	39.916	9.649	-23.867	C.3	8	ASP8	-0.030	
115	  CG	39.620	11.056	-24.408	C.2	8	ASP8	0.799	
116	 OD1	39.673	11.259	-25.638	O.co2	8	ASP8	-0.801	
117	 OD2	39.379	11.971	-23.592	O.co2	8	ASP8	-0.801	
118	   H	40.598	7.223	-23.289	 H	8	ASP8	0.294	
119	  HA	40.758	8.777	-25.677	 H	8	ASP8	0.088	
120	 2HB	40.169	9.746	-22.796	 H	8	ASP8	-0.012	
121	 3HB	38.965	9.092	-23.900	 H	8	ASP8	-0.012	
122	   N	43.027	9.608	-23.458	N.am	9	GLU9	-0.516	
123	  CA	44.293	10.334	-23.404	C.3	9	GLU9	0.040	
124	   C	45.237	9.857	-24.480	C.2	9	GLU9	0.537	
125	   O	45.859	10.646	-25.206	O.2	9	GLU9	-0.582	
126	  CB	44.937	10.161	-21.998	C.3	9	GLU9	0.056	
127	  CG	46.281	10.926	-21.770	C.3	9	GLU9	0.014	
128	  CD	46.994	10.751	-20.442	C.2	9	GLU9	0.805	
129	 OE1	46.510	10.033	-19.545	O.co2	9	GLU9	-0.819	
130	 OE2	48.082	11.348	-20.311	O.co2	9	GLU9	-0.819	
131	   H	42.691	9.102	-22.651	 H	9	GLU9	0.294	
132	  HA	44.092	11.407	-23.579	 H	9	GLU9	0.111	
133	 2HB	45.108	9.084	-21.795	 H	9	GLU9	-0.017	
134	 3HB	44.223	10.476	-21.214	 H	9	GLU9	-0.017	
135	 2HG	46.150	12.012	-21.909	 H	9	GLU9	-0.043	
136	 3HG	47.044	10.622	-22.504	 H	9	GLU9	-0.043	
137	   N	45.402	8.589	-24.650	N.am	10	HIS10	-0.416	
138	  CA	46.316	8.126	-25.691	C.3	10	HIS10	-0.058	
139	   C	45.918	8.670	-27.041	C.2	10	HIS10	0.597	
140	   O	46.744	9.180	-27.814	O.2	10	HIS10	-0.568	
141	  CB	46.234	6.590	-25.686	C.3	10	HIS10	-0.007	
142	  CG	47.556	5.950	-25.378	C.2	10	HIS10	0.187	
143	 CD2	47.955	5.636	-24.086	C.2	10	HIS10	-0.221	
144	 ND1	48.528	5.596	-26.312	N.2	10	HIS10	-0.543	
145	 CE1	49.464	5.088	-25.489	C.2	10	HIS10	0.163	
146	 NE2	49.202	5.071	-24.153	N.pl3	10	HIS10	-0.280	
147	   H	44.906	7.925	-24.071	 H	10	HIS10	0.272	
148	  HA	47.314	8.538	-25.466	 H	10	HIS10	0.136	
149	 2HB	45.889	6.204	-26.666	 H	10	HIS10	0.037	
150	 3HB	45.498	6.213	-24.945	 H	10	HIS10	0.037	
151	 2HD	47.360	5.819	-23.197	 H	10	HIS10	0.186	
152	 1HE	50.376	4.715	-25.936	 H	10	HIS10	0.144	
153	 2HE	49.789	4.724	-23.381	 H	10	HIS10	0.334	
154	   N	44.682	8.603	-27.404	N.am	11	VAL11	-0.416	
155	  CA	44.297	9.129	-28.710	C.3	11	VAL11	-0.087	
156	   C	44.684	10.582	-28.843	C.2	11	VAL11	0.597	
157	   O	45.262	11.019	-29.846	O.2	11	VAL11	-0.568	
158	  CB	42.744	8.938	-28.929	C.3	11	VAL11	0.299	
159	 CG1	42.138	9.611	-30.191	C.3	11	VAL11	-0.319	
160	 CG2	42.298	7.458	-29.002	C.3	11	VAL11	-0.319	
161	   H	43.991	8.192	-26.793	 H	11	VAL11	0.272	
162	  HA	44.847	8.575	-29.493	 H	11	VAL11	0.097	
163	  HB	42.232	9.391	-28.053	 H	11	VAL11	-0.030	
164	1HG1	42.596	9.243	-31.129	 H	11	VAL11	0.079	
165	2HG1	41.046	9.445	-30.273	 H	11	VAL11	0.079	
166	3HG1	42.257	10.711	-30.182	 H	11	VAL11	0.079	
167	1HG2	42.620	6.887	-28.112	 H	11	VAL11	0.079	
168	2HG2	41.196	7.362	-29.044	 H	11	VAL11	0.079	
169	3HG2	42.708	6.939	-29.889	 H	11	VAL11	0.079	
170	   N	44.403	11.394	-27.880	N.am	12	GLN12	-0.416	
171	  CA	44.777	12.799	-28.007	C.3	12	GLN12	-0.003	
172	   C	46.261	12.947	-28.246	C.2	12	GLN12	0.597	
173	   O	46.709	13.680	-29.125	O.2	12	GLN12	-0.568	
174	  CB	44.346	13.544	-26.724	C.3	12	GLN12	-0.004	
175	  CG	44.623	15.083	-26.693	C.3	12	GLN12	-0.064	
176	  CD	44.278	15.879	-25.428	C.2	12	GLN12	0.695	
177	 NE2	43.744	15.273	-24.399	N.pl3	12	GLN12	-0.941	
178	 OE1	44.516	17.075	-25.350	O.2	12	GLN12	-0.609	
179	   H	43.932	11.062	-27.051	 H	12	GLN12	0.272	
180	  HA	44.253	13.228	-28.882	 H	12	GLN12	0.085	
181	 2HB	44.848	13.070	-25.855	 H	12	GLN12	0.017	
182	 3HB	43.263	13.378	-26.561	 H	12	GLN12	0.017	
183	 2HG	44.118	15.578	-27.543	 H	12	GLN12	0.035	
184	 3HG	45.698	15.283	-26.859	 H	12	GLN12	0.035	
185	1HE2	43.605	15.861	-23.575	 H	12	GLN12	0.425	
186	2HE2	43.634	14.262	-24.503	 H	12	GLN12	0.425	
187	   N	47.083	12.283	-27.506	N.am	13	ARG13	-0.348	
188	  CA	48.517	12.426	-27.737	C.3	13	ARG13	-0.264	
189	   C	48.872	12.074	-29.162	C.2	13	ARG13	0.734	
190	   O	49.603	12.786	-29.847	O.2	13	ARG13	-0.589	
191	  CB	49.281	11.527	-26.724	C.3	13	ARG13	-0.001	
192	  CG	50.815	11.763	-26.643	C.3	13	ARG13	0.039	
193	  CD	51.495	10.810	-25.646	C.3	13	ARG13	0.049	
194	  NE	52.959	11.097	-25.596	N.pl3	13	ARG13	-0.530	
195	  CZ	53.843	10.452	-24.842	C.cat	13	ARG13	0.808	
196	 NH1	53.531	9.469	-24.044	N.pl3	13	ARG13	-0.863	
197	 NH2	55.085	10.818	-24.899	N.pl3	13	ARG13	-0.863	
198	   H	46.739	11.674	-26.777	 H	13	ARG13	0.275	
199	  HA	48.785	13.488	-27.579	 H	13	ARG13	0.156	
200	 2HB	49.071	10.464	-26.963	 H	13	ARG13	0.033	
201	 3HB	48.847	11.670	-25.713	 H	13	ARG13	0.033	
202	 2HG	51.006	12.820	-26.364	 H	13	ARG13	0.029	
203	 3HG	51.273	11.632	-27.645	 H	13	ARG13	0.029	
204	 2HD	51.307	9.759	-25.955	 H	13	ARG13	0.069	
205	 3HD	51.032	10.931	-24.643	 H	13	ARG13	0.069	
206	  HE	53.370	11.842	-26.167	 H	13	ARG13	0.346	
207	1HH1	52.537	9.229	-24.047	 H	13	ARG13	0.448	
208	2HH1	54.269	9.025	-23.496	 H	13	ARG13	0.448	
209	1HH2	55.311	11.589	-25.530	 H	13	ARG13	0.448	
210	2HH2	55.748	10.312	-24.311	 H	13	ARG13	0.448	
211	   N	48.393	10.992	-29.677	N.am	14	VAL14	-0.416	
212	  CA	48.736	10.651	-31.054	C.3	14	VAL14	-0.087	
213	   C	48.345	11.762	-32.000	C.2	14	VAL14	0.597	
214	   O	49.117	12.185	-32.869	O.2	14	VAL14	-0.568	
215	  CB	48.036	9.294	-31.461	C.3	14	VAL14	0.299	
216	 CG1	48.146	8.882	-32.955	C.3	14	VAL14	-0.319	
217	 CG2	48.535	8.067	-30.661	C.3	14	VAL14	-0.319	
218	   H	47.790	10.390	-29.134	 H	14	VAL14	0.272	
219	  HA	49.832	10.533	-31.130	 H	14	VAL14	0.097	
220	  HB	46.952	9.407	-31.244	 H	14	VAL14	-0.030	
221	1HG1	49.196	8.761	-33.284	 H	14	VAL14	0.079	
222	2HG1	47.624	7.929	-33.167	 H	14	VAL14	0.079	
223	3HG1	47.677	9.620	-33.632	 H	14	VAL14	0.079	
224	1HG2	48.440	8.220	-29.571	 H	14	VAL14	0.079	
225	2HG2	47.947	7.158	-30.893	 H	14	VAL14	0.079	
226	3HG2	49.597	7.834	-30.867	 H	14	VAL14	0.079	
227	   N	47.171	12.285	-31.897	N.am	15	MET15	-0.416	
228	  CA	46.792	13.359	-32.810	C.3	15	MET15	-0.024	
229	   C	47.761	14.513	-32.723	C.2	15	MET15	0.597	
230	   O	48.235	15.050	-33.736	O.2	15	MET15	-0.568	
231	  CB	45.343	13.827	-32.501	C.3	15	MET15	0.034	
232	  CG	44.236	12.768	-32.692	C.3	15	MET15	0.002	
233	  SD	42.618	13.548	-32.577	S.3	15	MET15	-0.274	
234	  CE	41.615	12.062	-32.440	C.3	15	MET15	-0.054	
235	   H	46.523	11.957	-31.195	 H	15	MET15	0.272	
236	  HA	46.838	12.974	-33.846	 H	15	MET15	0.088	
237	 2HB	45.093	14.694	-33.143	 H	15	MET15	0.024	
238	 3HB	45.287	14.217	-31.464	 H	15	MET15	0.024	
239	 2HG	44.322	11.986	-31.914	 H	15	MET15	0.044	
240	 3HG	44.326	12.257	-33.668	 H	15	MET15	0.044	
241	 1HE	41.796	11.383	-33.292	 H	15	MET15	0.068	
242	 2HE	41.855	11.522	-31.507	 H	15	MET15	0.068	
243	 3HE	40.542	12.320	-32.423	 H	15	MET15	0.068	
244	   N	48.107	14.953	-31.561	N.am	16	ARG16	-0.348	
245	  CA	49.045	16.069	-31.477	C.3	16	ARG16	-0.264	
246	   C	50.335	15.745	-32.194	C.2	16	ARG16	0.734	
247	   O	50.506	14.676	-32.776	O.2	16	ARG16	-0.589	
248	  CB	49.297	16.400	-29.979	C.3	16	ARG16	-0.001	
249	  CG	50.052	17.732	-29.707	C.3	16	ARG16	0.039	
250	  CD	50.290	17.964	-28.206	C.3	16	ARG16	0.049	
251	  NE	50.998	19.263	-28.005	N.pl3	16	ARG16	-0.530	
252	  CZ	51.363	19.766	-26.829	C.cat	16	ARG16	0.808	
253	 NH1	51.148	19.169	-25.691	N.pl3	16	ARG16	-0.863	
254	 NH2	51.966	20.912	-26.811	N.pl3	16	ARG16	-0.863	
255	   H	47.735	14.532	-30.721	 H	16	ARG16	0.275	
256	  HA	48.588	16.938	-31.987	 H	16	ARG16	0.156	
257	 2HB	49.841	15.552	-29.513	 H	16	ARG16	0.033	
258	 3HB	48.326	16.429	-29.445	 H	16	ARG16	0.033	
259	 2HG	49.475	18.573	-30.143	 H	16	ARG16	0.029	
260	 3HG	51.027	17.732	-30.236	 H	16	ARG16	0.029	
261	 2HD	50.886	17.120	-27.793	 H	16	ARG16	0.069	
262	 3HD	49.317	17.954	-27.670	 H	16	ARG16	0.069	
263	  HE	51.244	19.858	-28.802	 H	16	ARG16	0.346	
264	1HH1	50.670	18.269	-25.775	 H	16	ARG16	0.448	
265	2HH1	51.459	19.621	-24.830	 H	16	ARG16	0.448	
266	1HH2	52.127	21.365	-27.713	 H	16	ARG16	0.448	
267	2HH2	52.237	21.282	-25.898	 H	16	ARG16	0.448	
@<TRIPOS>BOND
1 1 2 1
2 1 9 1
3 2 3 1
4 2 5 1
5 2 10 1
6 3 4 2
7 3 18 1
8 5 6 1
9 6 7 1
10 7 8 1
11 5 11 1
12 5 12 1
13 6 13 1
14 6 14 1
15 8 15 1
16 8 16 1
17 8 17 1
18 18 19 1
19 18 26 1
20 19 20 1
21 19 22 1
22 19 27 1
23 20 21 2
24 20 32 1
25 22 23 1
26 23 24 1
27 23 25 2
28 22 28 1
29 22 29 1
30 24 30 1
31 24 31 1
32 32 33 1
33 32 38 1
34 33 34 1
35 33 36 1
36 33 39 1
37 34 35 2
38 34 46 1
39 36 37 1
40 37 38 1
41 36 40 1
42 36 41 1
43 37 42 1
44 37 43 1
45 38 44 1
46 38 45 1
47 46 47 1
48 46 55 1
49 47 48 1
50 47 50 1
51 47 56 1
52 48 49 2
53 48 61 1
54 50 51 1
55 51 52 1
56 52 53 2
57 52 54 1
58 50 57 1
59 50 58 1
60 51 59 1
61 51 60 1
62 61 62 1
63 61 67 1
64 62 63 1
65 62 65 1
66 62 68 1
67 63 64 2
68 63 72 1
69 65 66 1
70 65 69 1
71 65 70 1
72 66 71 1
73 72 73 1
74 72 80 1
75 73 74 1
76 73 76 1
77 73 81 1
78 74 75 2
79 74 91 1
80 76 77 1
81 76 78 1
82 77 79 1
83 76 82 1
84 77 83 1
85 77 84 1
86 78 85 1
87 78 86 1
88 78 87 1
89 79 88 1
90 79 89 1
91 79 90 1
92 91 92 1
93 91 99 1
94 92 93 1
95 92 95 1
96 92 100 1
97 93 94 2
98 93 110 1
99 95 96 1
100 96 97 1
101 96 98 1
102 95 101 1
103 95 102 1
104 96 103 1
105 97 104 1
106 97 105 1
107 97 106 1
108 98 107 1
109 98 108 1
110 98 109 1
111 110 111 1
112 110 118 1
113 111 112 1
114 111 114 1
115 111 119 1
116 112 113 2
117 112 122 1
118 114 115 1
119 115 116 2
120 115 117 1
121 114 120 1
122 114 121 1
123 122 123 1
124 122 131 1
125 123 124 1
126 123 126 1
127 123 132 1
128 124 125 2
129 124 137 1
130 126 127 1
131 127 128 1
132 128 129 2
133 128 130 1
134 126 133 1
135 126 134 1
136 127 135 1
137 127 136 1
138 137 138 1
139 137 147 1
140 138 139 1
141 138 141 1
142 138 148 1
143 139 140 2
144 139 154 1
145 141 142 1
146 142 143 2
147 143 146 1
148 142 144 1
149 144 145 2
150 145 146 1
151 141 149 1
152 141 150 1
153 143 151 1
154 145 152 1
155 146 153 1
156 154 155 1
157 154 161 1
158 155 156 1
159 155 158 1
160 155 162 1
161 156 157 2
162 156 170 1
163 158 159 1
164 158 160 1
165 158 163 1
166 159 164 1
167 159 165 1
168 159 166 1
169 160 167 1
170 160 168 1
171 160 169 1
172 170 171 1
173 170 179 1
174 171 172 1
175 171 174 1
176 171 180 1
177 172 173 2
178 172 187 1
179 174 175 1
180 175 176 1
181 176 177 1
182 176 178 2
183 174 181 1
184 174 182 1
185 175 183 1
186 175 184 1
187 177 185 1
188 177 186 1
189 187 188 1
190 187 198 1
191 188 189 1
192 188 191 1
193 188 199 1
194 189 190 2
195 189 211 1
196 191 192 1
197 192 193 1
198 193 194 1
199 194 195 1
200 195 196 2
201 195 197 1
202 191 200 1
203 191 201 1
204 192 202 1
205 192 203 1
206 193 204 1
207 193 205 1
208 194 206 1
209 196 207 1
210 196 208 1
211 197 209 1
212 197 210 1
213 211 212 1
214 211 218 1
215 212 213 1
216 212 215 1
217 212 219 1
218 213 214 2
219 213 227 1
220 215 216 1
221 215 217 1
222 215 220 1
223 216 221 1
224 216 222 1
225 216 223 1
226 217 224 1
227 217 225 1
228 217 226 1
229 227 228 1
230 227 235 1
231 228 229 1
232 228 231 1
233 228 236 1
234 229 230 2
235 229 244 1
236 231 232 1
237 232 233 1
238 233 234 1
239 231 237 1
240 231 238 1
241 232 239 1
242 232 240 1
243 234 241 1
244 234 242 1
245 234 243 1
246 244 245 1
247 244 255 1
248 245 246 1
249 245 248 1
250 245 256 1
251 246 247 2
252 248 249 1
253 249 250 1
254 250 251 1
255 251 252 1
256 252 253 2
257 252 254 1
258 248 257 1
259 248 258 1
260 249 259 1
261 249 260 1
262 250 261 1
263 250 262 1
264 251 263 1
265 253 264 1
266 253 265 1
267 254 266 1
268 254 267 1
@<TRIPOS>SUBSTRUCTURE
1	MET1	1	RESIDUE	1 ****	MET
2	ASN2	18	RESIDUE	1 ****	ASN
3	PRO3	32	RESIDUE	1 ****	PRO
4	GLU4	46	RESIDUE	1 ****	GLU
5	SER5	61	RESIDUE	1 ****	SER
6	ILE6	72	RESIDUE	1 ****	ILE
7	LEU7	91	RESIDUE	1 ****	LEU
8	ASP8	110	RESIDUE	1 ****	ASP
9	GLU9	122	RESIDUE	1 ****	GLU
10	HIS10	137	RESIDUE	1 ****	HIS
11	VAL11	154	RESIDUE	1 ****	VAL
12	GLN12	170	RESIDUE	1 ****	GLN
13	ARG13	187	RESIDUE	1 ****	ARG
14	VAL14	211	RESIDUE	1 ****	VAL
15	MET15	227	RESIDUE	1 ****	MET
16	ARG16	244	RESIDUE	1 ****	ARG
