@<TRIPOS>MOLECULE
6-19
268 269 16              
SMALL
USER_CHARGES
@<TRIPOS>ATOM
1	   N	1008.858	279.868	-986.744	N.3	1	GLU1	-0.516	
2	  CA	1009.417	281.217	-986.744	C.3	1	GLU1	0.040	
3	   C	1010.926	281.177	-986.744	C.2	1	GLU1	0.537	
4	   O	1011.602	281.876	-987.513	O.2	1	GLU1	-0.582	
5	  CB	1008.894	282.002	-985.507	C.3	1	GLU1	0.056	
6	  CG	1009.369	283.487	-985.396	C.3	1	GLU1	0.014	
7	  CD	1008.945	284.291	-984.181	C.2	1	GLU1	0.805	
8	 OE1	1008.217	283.789	-983.303	O.co2	1	GLU1	-0.819	
9	 OE2	1009.375	285.461	-984.109	O.co2	1	GLU1	-0.819	
10	   H	1009.485	278.989	-986.744	 H	1	GLU1	0.294	
11	  HA	1009.091	281.735	-987.664	 H	1	GLU1	0.111	
12	 2HB	1009.183	281.471	-984.577	 H	1	GLU1	-0.017	
13	 3HB	1007.787	281.992	-985.494	 H	1	GLU1	-0.017	
14	 2HG	1009.059	284.072	-986.277	 H	1	GLU1	-0.043	
15	 3HG	1010.469	283.554	-985.367	 H	1	GLU1	-0.043	
16	   N	1011.531	280.391	-985.919	N.am	2	ASN2	-0.416	
17	  CA	1012.990	280.352	-985.919	C.3	2	ASN2	0.014	
18	   C	1013.521	279.997	-987.288	C.2	2	ASN2	0.597	
19	   O	1014.436	280.627	-987.817	O.2	2	ASN2	-0.568	
20	  CB	1013.482	279.329	-984.855	C.3	2	ASN2	-0.204	
21	  CG	1013.019	279.553	-983.412	C.2	2	ASN2	0.713	
22	 ND2	1013.613	280.468	-982.693	N.pl3	2	ASN2	-0.919	
23	 OD1	1012.098	278.919	-982.917	O.2	2	ASN2	-0.593	
24	   H	1011.003	279.811	-985.283	 H	2	ASN2	0.272	
25	  HA	1013.367	281.362	-985.674	 H	2	ASN2	0.105	
26	 2HB	1014.587	279.270	-984.859	 H	2	ASN2	0.080	
27	 3HB	1013.153	278.311	-985.141	 H	2	ASN2	0.080	
28	1HD2	1013.133	280.641	-981.807	 H	2	ASN2	0.420	
29	2HD2	1014.315	281.040	-983.163	 H	2	ASN2	0.420	
30	   N	1013.000	279.002	-987.922	N.am	3	PRO3	-0.255	
31	  CA	1013.452	278.592	-989.243	C.3	3	PRO3	-0.027	
32	   C	1013.054	279.616	-990.320	C.2	3	PRO3	0.590	
33	   O	1013.877	279.999	-991.152	O.2	3	PRO3	-0.575	
34	  CB	1012.748	277.238	-989.413	C.3	3	PRO3	-0.007	
35	  CG	1011.464	277.390	-988.583	C.3	3	PRO3	0.019	
36	  CD	1011.922	278.208	-987.373	C.3	3	PRO3	0.019	
37	  HA	1014.538	278.473	-989.257	 H	3	PRO3	0.064	
38	 2HB	1013.371	276.456	-988.972	 H	3	PRO3	0.025	
39	 3HB	1012.550	276.989	-990.458	 H	3	PRO3	0.025	
40	 2HG	1011.037	276.427	-988.292	 H	3	PRO3	0.021	
41	 3HG	1010.727	277.961	-989.150	 H	3	PRO3	0.021	
42	 2HD	1012.311	277.559	-986.585	 H	3	PRO3	0.039	
43	 3HD	1011.125	278.844	-986.980	 H	3	PRO3	0.039	
44	   N	1011.849	280.076	-990.353	N.am	4	GLU4	-0.516	
45	  CA	1011.489	281.047	-991.382	C.3	4	GLU4	0.040	
46	   C	1012.388	282.258	-991.321	C.2	4	GLU4	0.537	
47	   O	1012.914	282.737	-992.336	O.2	4	GLU4	-0.582	
48	  CB	1010.000	281.465	-991.212	C.3	4	GLU4	0.056	
49	  CG	1009.452	282.469	-992.278	C.3	4	GLU4	0.014	
50	  CD	1008.026	282.965	-992.134	C.2	4	GLU4	0.805	
51	 OE1	1007.299	282.567	-991.203	O.co2	4	GLU4	-0.819	
52	 OE2	1007.636	283.794	-992.982	O.co2	4	GLU4	-0.819	
53	   H	1011.165	279.769	-989.676	 H	4	GLU4	0.294	
54	  HA	1011.620	280.576	-992.374	 H	4	GLU4	0.111	
55	 2HB	1009.848	281.905	-990.205	 H	4	GLU4	-0.017	
56	 3HB	1009.353	280.567	-991.218	 H	4	GLU4	-0.017	
57	 2HG	1009.534	282.054	-993.296	 H	4	GLU4	-0.043	
58	 3HG	1010.040	283.401	-992.289	 H	4	GLU4	-0.043	
59	   N	1012.615	282.811	-990.178	N.am	5	SER5	-0.416	
60	  CA	1013.485	283.982	-990.119	C.3	5	SER5	-0.025	
61	   C	1014.844	283.677	-990.705	C.2	5	SER5	0.597	
62	   O	1015.391	284.430	-991.510	O.2	5	SER5	-0.568	
63	  CB	1013.596	284.514	-988.669	C.3	5	SER5	0.212	
64	  OG	1014.328	283.635	-987.808	O.3	5	SER5	-0.655	
65	   H	1012.198	282.439	-989.337	 H	5	SER5	0.272	
66	  HA	1013.035	284.772	-990.749	 H	5	SER5	0.084	
67	 2HB	1012.596	284.708	-988.236	 H	5	SER5	0.035	
68	 3HB	1014.101	285.500	-988.671	 H	5	SER5	0.035	
69	  HG	1013.839	282.810	-987.757	 H	5	SER5	0.428	
70	   N	1015.448	282.594	-990.351	N.am	6	LYS6	-0.348	
71	  CA	1016.762	282.298	-990.916	C.3	6	LYS6	-0.240	
72	   C	1016.705	282.260	-992.425	C.2	6	LYS6	0.734	
73	   O	1017.539	282.847	-993.129	O.2	6	LYS6	-0.589	
74	  CB	1017.279	280.950	-990.346	C.3	6	LYS6	-0.009	
75	  CG	1018.704	280.582	-990.829	C.3	6	LYS6	0.019	
76	  CD	1019.221	279.227	-990.338	C.3	6	LYS6	-0.048	
77	  CE	1020.604	278.963	-990.948	C.3	6	LYS6	-0.014	
78	  NZ	1021.180	277.747	-990.347	N.4	6	LYS6	-0.385	
79	   H	1015.020	281.959	-989.692	 H	6	LYS6	0.275	
80	  HA	1017.456	283.111	-990.630	 H	6	LYS6	0.143	
81	 2HB	1016.571	280.137	-990.610	 H	6	LYS6	0.036	
82	 3HB	1017.270	280.985	-989.238	 H	6	LYS6	0.036	
83	 2HG	1019.412	281.384	-990.540	 H	6	LYS6	0.010	
84	 3HG	1018.736	280.546	-991.934	 H	6	LYS6	0.010	
85	 2HD	1018.513	278.426	-990.633	 H	6	LYS6	0.062	
86	 3HD	1019.258	279.218	-989.232	 H	6	LYS6	0.062	
87	 2HE	1021.288	279.820	-990.777	 H	6	LYS6	0.113	
88	 3HE	1020.528	278.851	-992.050	 H	6	LYS6	0.113	
89	 1HZ	1020.449	277.044	-990.181	 H	6	LYS6	0.340	
90	 2HZ	1021.861	277.306	-990.975	 H	6	LYS6	0.340	
91	 3HZ	1021.620	278.036	-989.485	 H	6	LYS6	0.340	
92	   N	1015.759	281.597	-992.999	N.am	7	LEU7	-0.416	
93	  CA	1015.704	281.560	-994.458	C.3	7	LEU7	-0.052	
94	   C	1015.632	282.956	-995.030	C.2	7	LEU7	0.597	
95	   O	1016.353	283.318	-995.972	O.2	7	LEU7	-0.568	
96	  CB	1014.501	280.700	-994.938	C.3	7	LEU7	-0.110	
97	  CG	1014.428	279.221	-994.471	C.3	7	LEU7	0.353	
98	 CD1	1013.238	278.515	-995.137	C.3	7	LEU7	-0.412	
99	 CD2	1015.721	278.442	-994.762	C.3	7	LEU7	-0.412	
100	   H	1015.067	281.110	-992.448	 H	7	LEU7	0.272	
101	  HA	1016.646	281.120	-994.832	 H	7	LEU7	0.092	
102	 2HB	1014.478	280.716	-996.045	 H	7	LEU7	0.046	
103	 3HB	1013.561	281.203	-994.634	 H	7	LEU7	0.046	
104	  HG	1014.258	279.213	-993.374	 H	7	LEU7	-0.036	
105	1HD1	1012.281	279.025	-994.914	 H	7	LEU7	0.100	
106	2HD1	1013.337	278.475	-996.238	 H	7	LEU7	0.100	
107	3HD1	1013.131	277.474	-994.780	 H	7	LEU7	0.100	
108	1HD2	1015.997	278.472	-995.832	 H	7	LEU7	0.100	
109	2HD2	1016.575	278.853	-994.191	 H	7	LEU7	0.100	
110	3HD2	1015.640	277.379	-994.466	 H	7	LEU7	0.100	
111	   N	1014.795	283.797	-994.524	N.am	8	ASP8	-0.516	
112	  CA	1014.725	285.146	-995.078	C.3	8	ASP8	0.038	
113	   C	1016.072	285.826	-995.021	C.2	8	ASP8	0.537	
114	   O	1016.545	286.430	-995.996	O.2	8	ASP8	-0.582	
115	  CB	1013.647	285.985	-994.336	C.3	8	ASP8	-0.030	
116	  CG	1013.428	287.406	-994.877	C.2	8	ASP8	0.799	
117	 OD1	1013.492	287.605	-996.108	O.co2	8	ASP8	-0.801	
118	 OD2	1013.236	288.332	-994.062	O.co2	8	ASP8	-0.801	
119	   H	1014.197	283.526	-993.757	 H	8	ASP8	0.294	
120	  HA	1014.442	285.068	-996.145	 H	8	ASP8	0.088	
121	 2HB	1013.904	286.069	-993.265	 H	8	ASP8	-0.012	
122	 3HB	1012.668	285.480	-994.369	 H	8	ASP8	-0.012	
123	   N	1016.751	285.776	-993.926	N.am	9	GLU9	-0.516	
124	  CA	1018.054	286.433	-993.870	C.3	9	GLU9	0.040	
125	   C	1018.972	285.905	-994.946	C.2	9	GLU9	0.537	
126	   O	1019.636	286.659	-995.671	O.2	9	GLU9	-0.582	
127	  CB	1018.687	286.226	-992.465	C.3	9	GLU9	0.056	
128	  CG	1020.070	286.918	-992.235	C.3	9	GLU9	0.014	
129	  CD	1020.772	286.705	-990.907	C.2	9	GLU9	0.805	
130	 OE1	1020.250	286.014	-990.010	O.co2	9	GLU9	-0.819	
131	 OE2	1021.891	287.242	-990.775	O.co2	9	GLU9	-0.819	
132	   H	1016.388	285.290	-993.118	 H	9	GLU9	0.294	
133	  HA	1017.912	287.515	-994.046	 H	9	GLU9	0.111	
134	 2HB	1018.800	285.141	-992.261	 H	9	GLU9	-0.017	
135	 3HB	1017.990	286.579	-991.681	 H	9	GLU9	-0.017	
136	 2HG	1019.998	288.008	-992.375	 H	9	GLU9	-0.043	
137	 3HG	1020.817	286.572	-992.969	 H	9	GLU9	-0.043	
138	   N	1019.069	284.630	-995.115	N.am	10	HIS10	-0.416	
139	  CA	1019.957	284.118	-996.155	C.3	10	HIS10	-0.058	
140	   C	1019.590	284.683	-997.506	C.2	10	HIS10	0.597	
141	   O	1020.443	285.147	-998.278	O.2	10	HIS10	-0.568	
142	  CB	1019.792	282.589	-996.150	C.3	10	HIS10	-0.007	
143	  CG	1021.078	281.879	-995.841	C.2	10	HIS10	0.187	
144	 CD2	1021.458	281.544	-994.549	C.2	10	HIS10	-0.221	
145	 ND1	1022.030	281.473	-996.774	N.2	10	HIS10	-0.543	
146	 CE1	1022.936	280.914	-995.950	C.2	10	HIS10	0.163	
147	 NE2	1022.673	280.912	-994.615	N.pl3	10	HIS10	-0.280	
148	   H	1018.538	283.995	-994.536	 H	10	HIS10	0.272	
149	  HA	1020.976	284.475	-995.930	 H	10	HIS10	0.136	
150	 2HB	1019.427	282.222	-997.130	 H	10	HIS10	0.037	
151	 3HB	1019.036	282.253	-995.410	 H	10	HIS10	0.037	
152	 2HD	1020.872	281.759	-993.660	 H	10	HIS10	0.186	
153	 1HE	1023.827	280.493	-996.397	 H	10	HIS10	0.144	
154	 2HE	1023.239	280.534	-993.842	 H	10	HIS10	0.334	
155	   N	1018.352	284.682	-997.870	N.am	11	VAL11	-0.416	
156	  CA	1017.997	285.228	-999.176	C.3	11	VAL11	-0.087	
157	   C	1018.462	286.658	-999.309	C.2	11	VAL11	0.597	
158	   O	1019.063	287.063	-1000.312	O.2	11	VAL11	-0.568	
159	  CB	1016.436	285.121	-999.396	C.3	11	VAL11	0.299	
160	 CG1	1015.868	285.825	-1000.659	C.3	11	VAL11	-0.319	
161	 CG2	1015.911	283.667	-999.469	C.3	11	VAL11	-0.319	
162	   H	1017.639	284.309	-997.259	 H	11	VAL11	0.272	
163	  HA	1018.517	284.645	-999.959	 H	11	VAL11	0.097	
164	  HB	1015.949	285.602	-998.521	 H	11	VAL11	-0.030	
165	1HG1	1016.307	285.433	-1001.596	 H	11	VAL11	0.079	
166	2HG1	1014.769	285.718	-1000.741	 H	11	VAL11	0.079	
167	3HG1	1016.046	286.918	-1000.650	 H	11	VAL11	0.079	
168	1HG2	1016.201	283.080	-998.578	 H	11	VAL11	0.079	
169	2HG2	1014.806	283.631	-999.512	 H	11	VAL11	0.079	
170	3HG2	1016.293	283.126	-1000.356	 H	11	VAL11	0.079	
171	   N	1018.225	287.484	-998.347	N.am	12	GLN12	-0.416	
172	  CA	1018.674	288.867	-998.474	C.3	12	GLN12	-0.003	
173	   C	1020.164	288.934	-998.712	C.2	12	GLN12	0.597	
174	   O	1020.651	289.642	-999.590	O.2	12	GLN12	-0.568	
175	  CB	1018.283	289.635	-997.192	C.3	12	GLN12	-0.004	
176	  CG	1018.643	291.157	-997.161	C.3	12	GLN12	-0.064	
177	  CD	1018.341	291.970	-995.896	C.2	12	GLN12	0.695	
178	 NE2	1017.773	291.394	-994.867	N.pl3	12	GLN12	-0.941	
179	 OE1	1018.643	293.151	-995.819	O.2	12	GLN12	-0.609	
180	   H	1017.736	287.178	-997.518	 H	12	GLN12	0.272	
181	  HA	1018.175	289.323	-999.349	 H	12	GLN12	0.085	
182	 2HB	1018.759	289.135	-996.322	 H	12	GLN12	0.017	
183	 3HB	1017.193	289.528	-997.029	 H	12	GLN12	0.017	
184	 2HG	1018.166	291.677	-998.012	 H	12	GLN12	0.035	
185	 3HG	1019.727	291.298	-997.326	 H	12	GLN12	0.035	
186	1HE2	1017.666	291.989	-994.044	 H	12	GLN12	0.425	
187	2HE2	1017.610	290.391	-994.971	 H	12	GLN12	0.425	
188	   N	1020.948	288.227	-997.971	N.am	13	ARG13	-0.348	
189	  CA	1022.388	288.293	-998.201	C.3	13	ARG13	-0.264	
190	   C	1022.725	287.921	-999.626	C.2	13	ARG13	0.734	
191	   O	1023.494	288.593	-1000.310	O.2	13	ARG13	-0.589	
192	  CB	1023.101	287.354	-997.187	C.3	13	ARG13	-0.001	
193	  CG	1024.646	287.507	-997.105	C.3	13	ARG13	0.039	
194	  CD	1025.273	286.519	-996.107	C.3	13	ARG13	0.049	
195	  NE	1026.750	286.726	-996.057	N.pl3	13	ARG13	-0.530	
196	  CZ	1027.598	286.034	-995.301	C.cat	13	ARG13	0.808	
197	 NH1	1027.232	285.070	-994.504	N.pl3	13	ARG13	-0.863	
198	 NH2	1028.857	286.333	-995.358	N.pl3	13	ARG13	-0.863	
199	   H	1020.572	287.638	-997.242	 H	13	ARG13	0.275	
200	  HA	1022.713	289.339	-998.043	 H	13	ARG13	0.156	
201	 2HB	1022.835	286.303	-997.426	 H	13	ARG13	0.033	
202	 3HB	1022.676	287.521	-996.176	 H	13	ARG13	0.033	
203	 2HG	1024.895	288.551	-996.826	 H	13	ARG13	0.029	
204	 3HG	1025.097	287.350	-998.107	 H	13	ARG13	0.029	
205	 2HD	1025.028	285.479	-996.417	 H	13	ARG13	0.069	
206	 3HD	1024.816	286.665	-995.105	 H	13	ARG13	0.069	
207	  HE	1027.202	287.448	-996.627	 H	13	ARG13	0.346	
208	1HH1	1026.227	284.884	-994.507	 H	13	ARG13	0.448	
209	2HH1	1027.945	284.587	-993.955	 H	13	ARG13	0.448	
210	1HH2	1029.125	287.091	-995.989	 H	13	ARG13	0.448	
211	2HH2	1029.492	285.792	-994.769	 H	13	ARG13	0.448	
212	   N	1022.189	286.867	-1000.140	N.am	14	VAL14	-0.416	
213	  CA	1022.514	286.507	-1001.518	C.3	14	VAL14	-0.087	
214	   C	1022.184	287.637	-1002.463	C.2	14	VAL14	0.597	
215	   O	1022.978	288.019	-1003.333	O.2	14	VAL14	-0.568	
216	  CB	1021.741	285.190	-1001.925	C.3	14	VAL14	0.299	
217	 CG1	1021.831	284.772	-1003.418	C.3	14	VAL14	-0.319	
218	 CG2	1022.173	283.938	-1001.124	C.3	14	VAL14	-0.319	
219	   H	1021.554	286.298	-999.598	 H	14	VAL14	0.272	
220	  HA	1023.602	286.330	-1001.592	 H	14	VAL14	0.097	
221	  HB	1020.665	285.362	-1001.709	 H	14	VAL14	-0.030	
222	1HG1	1022.872	284.595	-1003.747	 H	14	VAL14	0.079	
223	2HG1	1021.258	283.849	-1003.631	 H	14	VAL14	0.079	
224	3HG1	1021.402	285.534	-1004.096	 H	14	VAL14	0.079	
225	1HG2	1022.085	284.097	-1000.034	 H	14	VAL14	0.079	
226	2HG2	1021.537	283.062	-1001.356	 H	14	VAL14	0.079	
227	3HG2	1023.220	283.648	-1001.329	 H	14	VAL14	0.079	
228	   N	1021.039	288.223	-1002.362	N.am	15	MET15	-0.416	
229	  CA	1020.719	289.316	-1003.276	C.3	15	MET15	-0.024	
230	   C	1021.750	290.416	-1003.188	C.2	15	MET15	0.597	
231	   O	1022.253	290.926	-1004.200	O.2	15	MET15	-0.568	
232	  CB	1019.298	289.862	-1002.967	C.3	15	MET15	0.034	
233	  CG	1018.136	288.864	-1003.159	C.3	15	MET15	0.002	
234	  SD	1016.562	289.730	-1003.045	S.3	15	MET15	-0.274	
235	  CE	1015.481	288.301	-1002.909	C.3	15	MET15	-0.054	
236	   H	1020.374	287.931	-1001.661	 H	15	MET15	0.272	
237	  HA	1020.746	288.929	-1004.311	 H	15	MET15	0.088	
238	 2HB	1019.096	290.741	-1003.609	 H	15	MET15	0.024	
239	 3HB	1019.262	290.254	-1001.931	 H	15	MET15	0.024	
240	 2HG	1018.179	288.078	-1002.381	 H	15	MET15	0.044	
241	 3HG	1018.199	288.349	-1004.135	 H	15	MET15	0.044	
242	 1HE	1015.625	287.613	-1003.761	 H	15	MET15	0.068	
243	 2HE	1015.690	287.748	-1001.976	 H	15	MET15	0.068	
244	 3HE	1014.423	288.616	-1002.893	 H	15	MET15	0.068	
245	   N	1022.118	290.837	-1002.025	N.am	16	ARG16	-0.348	
246	  CA	1023.115	291.900	-1001.942	C.3	16	ARG16	-0.264	
247	   C	1024.386	291.507	-1002.657	C.2	16	ARG16	0.734	
248	   O	1024.500	290.431	-1003.239	O.2	16	ARG16	-0.589	
249	  CB	1023.384	292.218	-1000.443	C.3	16	ARG16	-0.001	
250	  CG	1024.209	293.507	-1000.170	C.3	16	ARG16	0.039	
251	  CD	1024.458	293.727	-998.669	C.3	16	ARG16	0.049	
252	  NE	1025.235	294.985	-998.468	N.pl3	16	ARG16	-0.530	
253	  CZ	1025.626	295.468	-997.292	C.cat	16	ARG16	0.808	
254	 NH1	1025.378	294.884	-996.154	N.pl3	16	ARG16	-0.863	
255	 NH2	1026.290	296.580	-997.274	N.pl3	16	ARG16	-0.863	
256	   H	1021.723	290.437	-1001.186	 H	16	ARG16	0.275	
257	  HA	1022.706	292.793	-1002.452	 H	16	ARG16	0.156	
258	 2HB	1023.880	291.342	-999.977	 H	16	ARG16	0.033	
259	 3HB	1022.415	292.299	-999.910	 H	16	ARG16	0.033	
260	 2HG	1023.679	294.378	-1000.608	 H	16	ARG16	0.029	
261	 3HG	1025.183	293.454	-1000.699	 H	16	ARG16	0.029	
262	 2HD	1025.007	292.852	-998.255	 H	16	ARG16	0.069	
263	 3HD	1023.486	293.770	-998.134	 H	16	ARG16	0.069	
264	  HE	1025.514	295.566	-999.265	 H	16	ARG16	0.346	
265	1HH1	1024.852	294.011	-996.238	 H	16	ARG16	0.448	
266	2HH1	1025.712	295.319	-995.293	 H	16	ARG16	0.448	
267	1HH2	1026.476	297.023	-998.175	 H	16	ARG16	0.448	
268	2HH2	1026.580	296.935	-996.361	 H	16	ARG16	0.448	
@<TRIPOS>BOND
1 1 2 1
2 1 10 1
3 2 3 1
4 2 5 1
5 2 11 1
6 3 4 2
7 3 16 1
8 5 6 1
9 6 7 1
10 7 8 2
11 7 9 1
12 5 12 1
13 5 13 1
14 6 14 1
15 6 15 1
16 16 17 1
17 16 24 1
18 17 18 1
19 17 20 1
20 17 25 1
21 18 19 2
22 18 30 1
23 20 21 1
24 21 22 1
25 21 23 2
26 20 26 1
27 20 27 1
28 22 28 1
29 22 29 1
30 30 31 1
31 30 36 1
32 31 32 1
33 31 34 1
34 31 37 1
35 32 33 2
36 32 44 1
37 34 35 1
38 35 36 1
39 34 38 1
40 34 39 1
41 35 40 1
42 35 41 1
43 36 42 1
44 36 43 1
45 44 45 1
46 44 53 1
47 45 46 1
48 45 48 1
49 45 54 1
50 46 47 2
51 46 59 1
52 48 49 1
53 49 50 1
54 50 51 2
55 50 52 1
56 48 55 1
57 48 56 1
58 49 57 1
59 49 58 1
60 59 60 1
61 59 65 1
62 60 61 1
63 60 63 1
64 60 66 1
65 61 62 2
66 61 70 1
67 63 64 1
68 63 67 1
69 63 68 1
70 64 69 1
71 70 71 1
72 70 79 1
73 71 72 1
74 71 74 1
75 71 80 1
76 72 73 2
77 72 92 1
78 74 75 1
79 75 76 1
80 76 77 1
81 77 78 1
82 78 91 1
83 74 81 1
84 74 82 1
85 75 83 1
86 75 84 1
87 76 85 1
88 76 86 1
89 77 87 1
90 77 88 1
91 78 89 1
92 78 90 1
93 92 93 1
94 92 100 1
95 93 94 1
96 93 96 1
97 93 101 1
98 94 95 2
99 94 111 1
100 96 97 1
101 97 98 1
102 97 99 1
103 96 102 1
104 96 103 1
105 97 104 1
106 98 105 1
107 98 106 1
108 98 107 1
109 99 108 1
110 99 109 1
111 99 110 1
112 111 112 1
113 111 119 1
114 112 113 1
115 112 115 1
116 112 120 1
117 113 114 2
118 113 123 1
119 115 116 1
120 116 117 2
121 116 118 1
122 115 121 1
123 115 122 1
124 123 124 1
125 123 132 1
126 124 125 1
127 124 127 1
128 124 133 1
129 125 126 2
130 125 138 1
131 127 128 1
132 128 129 1
133 129 130 2
134 129 131 1
135 127 134 1
136 127 135 1
137 128 136 1
138 128 137 1
139 138 139 1
140 138 148 1
141 139 140 1
142 139 142 1
143 139 149 1
144 140 141 2
145 140 155 1
146 142 143 1
147 143 144 2
148 144 147 1
149 143 145 1
150 145 146 2
151 146 147 1
152 142 150 1
153 142 151 1
154 144 152 1
155 146 153 1
156 147 154 1
157 155 156 1
158 155 162 1
159 156 157 1
160 156 159 1
161 156 163 1
162 157 158 2
163 157 171 1
164 159 160 1
165 159 161 1
166 159 164 1
167 160 165 1
168 160 166 1
169 160 167 1
170 161 168 1
171 161 169 1
172 161 170 1
173 171 172 1
174 171 180 1
175 172 173 1
176 172 175 1
177 172 181 1
178 173 174 2
179 173 188 1
180 175 176 1
181 176 177 1
182 177 178 1
183 177 179 2
184 175 182 1
185 175 183 1
186 176 184 1
187 176 185 1
188 178 186 1
189 178 187 1
190 188 189 1
191 188 199 1
192 189 190 1
193 189 192 1
194 189 200 1
195 190 191 2
196 190 212 1
197 192 193 1
198 193 194 1
199 194 195 1
200 195 196 1
201 196 197 2
202 196 198 1
203 192 201 1
204 192 202 1
205 193 203 1
206 193 204 1
207 194 205 1
208 194 206 1
209 195 207 1
210 197 208 1
211 197 209 1
212 198 210 1
213 198 211 1
214 212 213 1
215 212 219 1
216 213 214 1
217 213 216 1
218 213 220 1
219 214 215 2
220 214 228 1
221 216 217 1
222 216 218 1
223 216 221 1
224 217 222 1
225 217 223 1
226 217 224 1
227 218 225 1
228 218 226 1
229 218 227 1
230 228 229 1
231 228 236 1
232 229 230 1
233 229 232 1
234 229 237 1
235 230 231 2
236 230 245 1
237 232 233 1
238 233 234 1
239 234 235 1
240 232 238 1
241 232 239 1
242 233 240 1
243 233 241 1
244 235 242 1
245 235 243 1
246 235 244 1
247 245 246 1
248 245 256 1
249 246 247 1
250 246 249 1
251 246 257 1
252 247 248 2
253 249 250 1
254 250 251 1
255 251 252 1
256 252 253 1
257 253 254 2
258 253 255 1
259 249 258 1
260 249 259 1
261 250 260 1
262 250 261 1
263 251 262 1
264 251 263 1
265 252 264 1
266 254 265 1
267 254 266 1
268 255 267 1
269 255 268 1
@<TRIPOS>SUBSTRUCTURE
1	GLU1	1	RESIDUE	1 ****	GLU
2	ASN2	16	RESIDUE	1 ****	ASN
3	PRO3	30	RESIDUE	1 ****	PRO
4	GLU4	44	RESIDUE	1 ****	GLU
5	SER5	59	RESIDUE	1 ****	SER
6	LYS6	70	RESIDUE	1 ****	LYS
7	LEU7	92	RESIDUE	1 ****	LEU
8	ASP8	111	RESIDUE	1 ****	ASP
9	GLU9	123	RESIDUE	1 ****	GLU
10	HIS10	138	RESIDUE	1 ****	HIS
11	VAL11	155	RESIDUE	1 ****	VAL
12	GLN12	171	RESIDUE	1 ****	GLN
13	ARG13	188	RESIDUE	1 ****	ARG
14	VAL14	212	RESIDUE	1 ****	VAL
15	MET15	228	RESIDUE	1 ****	MET
16	ARG16	245	RESIDUE	1 ****	ARG
