REMARK WARNING: 32 MAX_TORS EXCEEDED!!!
REMARK  70 active torsions:
REMARK  status: ('A' for Active; 'I' for Inactive)
REMARK    1  A    between atoms: N_1  and  CA_2 
REMARK    2  A    between atoms: CA_2  and  C_3 
REMARK    3  A    between atoms: CA_2  and  CB_5 
REMARK       I    between atoms: C_3  and  N_11 
REMARK    4  A    between atoms: CB_5  and  CG_6 
REMARK    5  A    between atoms: CG_6  and  CD_7 
REMARK    6  A    between atoms: N_11  and  CA_12 
REMARK    7  A    between atoms: CA_12  and  C_13 
REMARK    8  A    between atoms: CA_12  and  CB_15 
REMARK       I    between atoms: C_13  and  N_22 
REMARK    9  A    between atoms: CB_15  and  CG_16 
REMARK       I    between atoms: CG_16  and  ND2_17 
REMARK   10  A    between atoms: CA_23  and  C_24 
REMARK       I    between atoms: C_24  and  N_29 
REMARK   11  A    between atoms: N_29  and  CA_30 
REMARK   12  A    between atoms: CA_30  and  C_31 
REMARK   13  A    between atoms: CA_30  and  CB_33 
REMARK       I    between atoms: C_31  and  N_39 
REMARK   14  A    between atoms: CB_33  and  CG_34 
REMARK   15  A    between atoms: CG_34  and  CD_35 
REMARK   16  A    between atoms: N_39  and  CA_40 
REMARK   17  A    between atoms: CA_40  and  C_41 
REMARK   18  A    between atoms: CA_40  and  CB_43 
REMARK       I    between atoms: C_41  and  N_47 
REMARK   19  A    between atoms: CB_43  and  OG_44 
REMARK   20  A    between atoms: N_47  and  CA_48 
REMARK   21  A    between atoms: CA_48  and  C_49 
REMARK   22  A    between atoms: CA_48  and  CB_51 
REMARK       I    between atoms: C_49  and  N_56 
REMARK   23  A    between atoms: CB_51  and  CG1_52 
REMARK   24  A    between atoms: N_56  and  CA_57 
REMARK   25  A    between atoms: CA_57  and  C_58 
REMARK   26  A    between atoms: CA_57  and  CB_60 
REMARK       I    between atoms: C_58  and  N_65 
REMARK   27  A    between atoms: CB_60  and  CG_61 
REMARK   28  A    between atoms: N_65  and  CA_66 
REMARK   29  A    between atoms: CA_66  and  C_67 
REMARK   30  A    between atoms: CA_66  and  CB_69 
REMARK       I    between atoms: C_67  and  N_74 
REMARK   31  A    between atoms: CB_69  and  CG_70 
REMARK   32  A    between atoms: N_74  and  CA_75 
REMARK   33  A    between atoms: CA_75  and  C_76 
REMARK   34  A    between atoms: CA_75  and  CB_78 
REMARK       I    between atoms: C_76  and  N_84 
REMARK   35  A    between atoms: CB_78  and  CG_79 
REMARK   36  A    between atoms: CG_79  and  CD_80 
REMARK   37  A    between atoms: N_84  and  CA_85 
REMARK   38  A    between atoms: CA_85  and  C_86 
REMARK   39  A    between atoms: CA_85  and  CB_88 
REMARK       I    between atoms: C_86  and  N_101 
REMARK   40  A    between atoms: CB_88  and  CG_89 
REMARK   41  A    between atoms: CG_89  and  CD_90 
REMARK   42  A    between atoms: CD_90  and  NE_91 
REMARK       I    between atoms: NE_91  and  CZ_92 
REMARK       I    between atoms: CZ_92  and  NH1_93 
REMARK       I    between atoms: CZ_92  and  NH2_94 
REMARK   43  A    between atoms: N_101  and  CA_102 
REMARK   44  A    between atoms: CA_102  and  C_103 
REMARK   45  A    between atoms: CA_102  and  CB_105 
REMARK       I    between atoms: C_103  and  N_109 
REMARK   46  A    between atoms: N_109  and  CA_110 
REMARK   47  A    between atoms: CA_110  and  C_111 
REMARK   48  A    between atoms: CA_110  and  CB_113 
REMARK       I    between atoms: C_111  and  N_121 
REMARK   49  A    between atoms: CB_113  and  CG_114 
REMARK   50  A    between atoms: CG_114  and  CD_115 
REMARK       I    between atoms: CD_115  and  NE2_116 
REMARK   51  A    between atoms: N_121  and  CA_122 
REMARK   52  A    between atoms: CA_122  and  C_123 
REMARK   53  A    between atoms: CA_122  and  CB_125 
REMARK       I    between atoms: C_123  and  N_138 
REMARK   54  A    between atoms: CB_125  and  CG_126 
REMARK   55  A    between atoms: CG_126  and  CD_127 
REMARK   56  A    between atoms: CD_127  and  NE_128 
REMARK       I    between atoms: NE_128  and  CZ_129 
REMARK       I    between atoms: CZ_129  and  NH1_130 
REMARK       I    between atoms: CZ_129  and  NH2_131 
REMARK   57  A    between atoms: N_138  and  CA_139 
REMARK   58  A    between atoms: CA_139  and  C_140 
REMARK   59  A    between atoms: CA_139  and  CB_142 
REMARK       I    between atoms: C_140  and  N_146 
REMARK   60  A    between atoms: N_146  and  CA_147 
REMARK   61  A    between atoms: CA_147  and  C_148 
REMARK   62  A    between atoms: CA_147  and  CB_150 
REMARK       I    between atoms: C_148  and  N_155 
REMARK   63  A    between atoms: CB_150  and  CG_151 
REMARK   64  A    between atoms: CG_151  and  SD_152 
REMARK   65  A    between atoms: N_155  and  CA_156 
REMARK   66  A    between atoms: CA_156  and  C_157 
REMARK   67  A    between atoms: CA_156  and  CB_159 
REMARK   68  A    between atoms: CB_159  and  CG_160 
REMARK   69  A    between atoms: CG_160  and  CD_161 
REMARK   70  A    between atoms: CD_161  and  NE_162 
REMARK       I    between atoms: NE_162  and  CZ_163 
REMARK       I    between atoms: CZ_163  and  NH1_164 
ROOT
ATOM      1  CA  ARG d  10    1684.154 503.367-1716.166  0.00  0.00     0.176 C 
ENDROOT
BRANCH   1   2
ATOM      2  N   ARG d  10    1683.266 503.876-1715.125  0.00  0.00    -0.346 N 
ATOM      3  C   GLU d   9    1683.169 505.151-1714.954  0.00  0.00     0.241 C 
ATOM      4  O   GLU d   9    1683.833 505.906-1715.679  0.00  0.00    -0.271 OA
ATOM      5  H   ARG d  10    1682.735 503.240-1714.547  0.00  0.00     0.163 HD
BRANCH   3   6
ATOM      6  CA  GLU d   9    1682.251 505.678-1713.878  0.00  0.00     0.177 C 
BRANCH   6   7
ATOM      7  N   GLU d   9    1680.948 505.021-1713.934  0.00  0.00    -0.346 N 
ATOM      8  C   ASP d   8    1680.269 505.071-1715.029  0.00  0.00     0.241 C 
ATOM      9  O   ASP d   8    1680.741 505.676-1716.003  0.00  0.00    -0.271 OA
ATOM     10  H   GLU d   9    1680.585 504.534-1713.126  0.00  0.00     0.163 HD
BRANCH   8  11
ATOM     11  CA  ASP d   8    1678.922 504.391-1715.086  0.00  0.00     0.186 C 
BRANCH  11  12
ATOM     12  N   ASP d   8    1678.992 503.041-1714.533  0.00  0.00    -0.346 N 
ATOM     13  C   LEU d   7    1679.830 502.201-1715.040  0.00  0.00     0.241 C 
ATOM     14  O   LEU d   7    1680.550 502.564-1715.982  0.00  0.00    -0.271 OA
ATOM     15  H   ASP d   8    1678.395 502.770-1713.766  0.00  0.00     0.163 HD
BRANCH  13  16
ATOM     16  CA  LEU d   7    1679.902 500.805-1714.468  0.00  0.00     0.177 C 
BRANCH  16  17
ATOM     17  N   LEU d   7    1679.957 500.841-1713.009  0.00  0.00    -0.346 N 
ATOM     18  C   ILE d   6    1680.903 501.505-1712.435  0.00  0.00     0.241 C 
ATOM     19  O   ILE d   6    1681.738 502.093-1713.139  0.00  0.00    -0.271 OA
ATOM     20  H   LEU d   7    1679.265 500.354-1712.458  0.00  0.00     0.163 HD
BRANCH  18  21
ATOM     21  CA  ILE d   6    1680.961 501.542-1710.927  0.00  0.00     0.180 C 
BRANCH  21  22
ATOM     22  N   ILE d   6    1679.647 501.837-1710.361  0.00  0.00    -0.346 N 
ATOM     23  C   SER d   5    1679.043 502.920-1710.715  0.00  0.00     0.243 C 
ATOM     24  O   SER d   5    1679.590 503.673-1711.520  0.00  0.00    -0.271 OA
ATOM     25  H   ILE d   6    1679.219 501.202-1709.702  0.00  0.00     0.163 HD
BRANCH  23  26
ATOM     26  CA  SER d   5    1677.684 503.225-1710.129  0.00  0.00     0.200 C 
BRANCH  26  27
ATOM     27  N   SER d   5    1676.814 502.054-1710.188  0.00  0.00    -0.344 N 
ATOM     28  C   GLU d   4    1676.587 501.501-1711.331  0.00  0.00     0.241 C 
ATOM     29  O   GLU d   4    1677.113 501.981-1712.345  0.00  0.00    -0.271 OA
ATOM     30  H   SER d   5    1676.398 501.682-1709.346  0.00  0.00     0.163 HD
BRANCH  28  31
ATOM     31  CA  GLU d   4    1675.688 500.290-1711.392  0.00  0.00     0.177 C 
BRANCH  31  32
ATOM     32  N   GLU d   4    1676.048 499.319-1710.362  0.00  0.00    -0.346 N 
ATOM     33  C   PRO d   3    1677.253 498.859-1710.330  0.00  0.00     0.241 C 
ATOM     34  O   PRO d   3    1678.076 499.242-1711.162  0.00  0.00    -0.271 OA
ATOM     35  H   GLU d   4    1675.364 499.012-1709.686  0.00  0.00     0.163 HD
BRANCH  33  36
ATOM     36  CA  PRO d   3    1677.651 497.835-1709.253  0.00  0.00     0.179 C 
ATOM     37  N   PRO d   3    1677.199 498.245-1707.932  0.00  0.00    -0.337 N 
ATOM     38  C   ASN d   2    1677.721 499.240-1707.298  0.00  0.00     0.243 C 
ATOM     39  CD  PRO d   3    1676.121 497.451-1707.383  0.00  0.00     0.127 C 
ATOM     40  O   ASN d   2    1678.635 499.870-1707.826  0.00  0.00    -0.271 OA
ATOM     41  CG  PRO d   3    1675.663 496.633-1708.592  0.00  0.00     0.022 C 
ATOM     42  CB  PRO d   3    1676.947 496.481-1709.423  0.00  0.00     0.037 C 
BRANCH  38  43
ATOM     43  CA  ASN d   2    1677.189 499.595-1705.929  0.00  0.00     0.185 C 
BRANCH  43  44
ATOM     44  N   ASN d   2    1675.730 499.634-1705.929  0.00  0.00    -0.346 N 
ATOM     45  C   GLU d   1    1675.125 500.420-1706.754  0.00  0.00     0.242 C 
ATOM     46  O   GLU d   1    1675.801 501.119-1707.523  0.00  0.00    -0.271 OA
ATOM     47  H   ASN d   2    1675.202 499.054-1705.292  0.00  0.00     0.163 HD
BRANCH  45  48
ATOM     48  CA  GLU d   1    1673.616 500.460-1706.754  0.00  0.00     0.191 C 
BRANCH  48  49
ATOM     49  N   GLU d   1    1673.057 499.111-1706.754  0.00  0.00    -0.326 NA
ATOM     50  H   GLU d   1    1673.684 498.232-1706.754  0.00  0.00     0.180 HD
ENDBRANCH  48  49
BRANCH  48  51
ATOM     51  CB  GLU d   1    1673.094 501.245-1705.517  0.00  0.00     0.047 C 
BRANCH  51  52
ATOM     52  CG  GLU d   1    1673.568 502.730-1705.406  0.00  0.00     0.116 C 
BRANCH  52  53
ATOM     53  CD  GLU d   1    1673.145 503.534-1704.191  0.00  0.00     0.172 C 
ATOM     54  OE1 GLU d   1    1672.417 503.032-1703.313  0.00  0.00    -0.648 OA
ATOM     55  OE2 GLU d   1    1673.574 504.704-1704.119  0.00  0.00    -0.648 OA
ENDBRANCH  52  53
ENDBRANCH  51  52
ENDBRANCH  48  51
ENDBRANCH  45  48
ENDBRANCH  43  44
BRANCH  43  56
ATOM     56  CB  ASN d   2    1677.681 498.572-1704.865  0.00  0.00     0.137 C 
BRANCH  56  57
ATOM     57  CG  ASN d   2    1677.219 498.796-1703.421  0.00  0.00     0.217 C 
ATOM     58  ND2 ASN d   2    1677.813 499.711-1702.703  0.00  0.00    -0.370 N 
ATOM     59 21HD ASN d   2    1677.332 499.884-1701.817  0.00  0.00     0.159 HD
ATOM     60 22HD ASN d   2    1678.514 500.283-1703.172  0.00  0.00     0.159 HD
ATOM     61  OD1 ASN d   2    1676.298 498.162-1702.927  0.00  0.00    -0.274 OA
ENDBRANCH  56  57
ENDBRANCH  43  56
ENDBRANCH  38  43
ENDBRANCH  33  36
ENDBRANCH  31  32
BRANCH  31  62
ATOM     62  CB  GLU d   4    1674.199 500.708-1711.221  0.00  0.00     0.045 C 
BRANCH  62  63
ATOM     63  CG  GLU d   4    1673.651 501.712-1712.287  0.00  0.00     0.116 C 
BRANCH  63  64
ATOM     64  CD  GLU d   4    1672.225 502.209-1712.143  0.00  0.00     0.172 C 
ATOM     65  OE1 GLU d   4    1671.499 501.810-1711.212  0.00  0.00    -0.648 OA
ATOM     66  OE2 GLU d   4    1671.835 503.038-1712.991  0.00  0.00    -0.648 OA
ENDBRANCH  63  64
ENDBRANCH  62  63
ENDBRANCH  31  62
ENDBRANCH  28  31
ENDBRANCH  26  27
BRANCH  26  67
ATOM     67  CB  SER d   5    1677.796 503.757-1708.679  0.00  0.00     0.199 C 
BRANCH  67  68
ATOM     68  OG  SER d   5    1678.527 502.878-1707.818  0.00  0.00    -0.398 OA
ATOM     69  HG  SER d   5    1678.039 502.053-1707.767  0.00  0.00     0.209 HD
ENDBRANCH  67  68
ENDBRANCH  26  67
ENDBRANCH  23  26
ENDBRANCH  21  22
BRANCH  21  70
ATOM     70  CB  ILE d   6    1681.560 500.206-1710.328  0.00  0.00     0.013 C 
ATOM     71  CG2 ILE d   6    1683.002 499.904-1710.843  0.00  0.00     0.012 C 
BRANCH  70  72
ATOM     72  CG1 ILE d   6    1681.580 500.143-1708.767  0.00  0.00     0.002 C 
ATOM     73  CD1 ILE d   6    1681.850 498.754-1708.152  0.00  0.00     0.005 C 
ENDBRANCH  70  72
ENDBRANCH  21  70
ENDBRANCH  18  21
ENDBRANCH  16  17
BRANCH  16  74
ATOM     74  CB  LEU d   7    1678.699 499.945-1714.948  0.00  0.00     0.038 C 
BRANCH  74  75
ATOM     75  CG  LEU d   7    1678.626 498.466-1714.482  0.00  0.00    -0.020 C 
ATOM     76  CD1 LEU d   7    1677.437 497.760-1715.147  0.00  0.00     0.009 C 
ATOM     77  CD2 LEU d   7    1679.920 497.687-1714.773  0.00  0.00     0.009 C 
ENDBRANCH  74  75
ENDBRANCH  16  74
ENDBRANCH  13  16
ENDBRANCH  11  12
BRANCH  11  78
ATOM     78  CB  ASP d   8    1677.844 505.230-1714.344  0.00  0.00     0.147 C 
BRANCH  78  79
ATOM     79  CG  ASP d   8    1677.625 506.651-1714.884  0.00  0.00     0.175 C 
ATOM     80  OD1 ASP d   8    1677.689 506.850-1716.115  0.00  0.00    -0.648 OA
ATOM     81  OD2 ASP d   8    1677.433 507.576-1714.068  0.00  0.00    -0.648 OA
ENDBRANCH  78  79
ENDBRANCH  11  78
ENDBRANCH   8  11
ENDBRANCH   6   7
BRANCH   6  82
ATOM     82  CB  GLU d   9    1682.885 505.470-1712.473  0.00  0.00     0.045 C 
BRANCH  82  83
ATOM     83  CG  GLU d   9    1684.267 506.163-1712.243  0.00  0.00     0.116 C 
BRANCH  83  84
ATOM     84  CD  GLU d   9    1684.969 505.949-1710.915  0.00  0.00     0.172 C 
ATOM     85  OE1 GLU d   9    1684.448 505.257-1710.019  0.00  0.00    -0.648 OA
ATOM     86  OE2 GLU d   9    1686.088 506.487-1710.783  0.00  0.00    -0.648 OA
ENDBRANCH  83  84
ENDBRANCH  82  83
ENDBRANCH   6  82
ENDBRANCH   3   6
ENDBRANCH   1   2
BRANCH   1  87
ATOM     87  C   ARG d  10    1683.784 503.934-1717.516  0.00  0.00     0.241 C 
ATOM     88  O   ARG d  10    1684.627 504.398-1718.281  0.00  0.00    -0.271 OA
ATOM     89  N   VAL d  11    1682.546 503.933-1717.877  0.00  0.00    -0.346 N 
ATOM     90  H   VAL d  11    1681.834 503.558-1717.266  0.00  0.00     0.163 HD
BRANCH  89  91
ATOM     91  CA  VAL d  11    1682.188 504.482-1719.182  0.00  0.00     0.180 C 
BRANCH  91  92
ATOM     92  C   VAL d  11    1682.651 505.913-1719.312  0.00  0.00     0.241 C 
ATOM     93  O   VAL d  11    1683.250 506.321-1720.315  0.00  0.00    -0.271 OA
ATOM     94  N   GLN d  12    1682.414 506.736-1718.347  0.00  0.00    -0.346 N 
ATOM     95  H   GLN d  12    1681.927 506.428-1717.518  0.00  0.00     0.163 HD
BRANCH  94  96
ATOM     96  CA  GLN d  12    1682.861 508.120-1718.472  0.00  0.00     0.177 C 
BRANCH  96  97
ATOM     97  C   GLN d  12    1684.351 508.190-1718.712  0.00  0.00     0.241 C 
ATOM     98  O   GLN d  12    1684.836 508.901-1719.589  0.00  0.00    -0.271 OA
ATOM     99  N   ARG d  13    1685.137 507.482-1717.974  0.00  0.00    -0.346 N 
ATOM    100  H   ARG d  13    1684.763 506.890-1717.246  0.00  0.00     0.163 HD
BRANCH  99 101
ATOM    101  CA  ARG d  13    1686.577 507.550-1718.206  0.00  0.00     0.176 C 
BRANCH 101 102
ATOM    102  C   ARG d  13    1686.912 507.183-1719.632  0.00  0.00     0.241 C 
ATOM    103  O   ARG d  13    1687.679 507.857-1720.316  0.00  0.00    -0.271 OA
ATOM    104  N   VAL d  14    1686.377 506.129-1720.149  0.00  0.00    -0.346 N 
ATOM    105  H   VAL d  14    1685.743 505.558-1719.607  0.00  0.00     0.163 HD
BRANCH 104 106
ATOM    106  CA  VAL d  14    1686.700 505.774-1721.527  0.00  0.00     0.180 C 
BRANCH 106 107
ATOM    107  C   VAL d  14    1686.368 506.905-1722.470  0.00  0.00     0.241 C 
ATOM    108  O   VAL d  14    1687.160 507.290-1723.339  0.00  0.00    -0.271 OA
ATOM    109  N   MET d  15    1685.222 507.490-1722.365  0.00  0.00    -0.346 N 
ATOM    110  H   MET d  15    1684.558 507.194-1721.664  0.00  0.00     0.163 HD
BRANCH 109 111
ATOM    111  CA  MET d  15    1684.899 508.584-1723.276  0.00  0.00     0.177 C 
BRANCH 111 112
ATOM    112  C   MET d  15    1685.928 509.685-1723.187  0.00  0.00     0.241 C 
ATOM    113  O   MET d  15    1686.429 510.199-1724.199  0.00  0.00    -0.271 OA
ATOM    114  N   ARG d  16    1686.298 510.104-1722.024  0.00  0.00    -0.347 N 
ATOM    115  H   ARG d  16    1685.904 509.701-1721.186  0.00  0.00     0.163 HD
BRANCH 114 116
ATOM    116  CA  ARG d  16    1687.293 511.169-1721.939  0.00  0.00     0.162 C 
BRANCH 116 117
ATOM    117  C   ARG d  16    1688.563 510.779-1722.658  0.00  0.00     0.219 C 
ATOM    118  O   ARG d  16    1688.678 509.704-1723.242  0.00  0.00    -0.287 OA
ENDBRANCH 116 117
BRANCH 116 119
ATOM    119  CB  ARG d  16    1687.563 511.483-1720.440  0.00  0.00     0.035 C 
BRANCH 119 120
ATOM    120  CG  ARG d  16    1688.387 512.773-1720.166  0.00  0.00     0.023 C 
BRANCH 120 121
ATOM    121  CD  ARG d  16    1688.638 512.989-1718.664  0.00  0.00     0.138 C 
BRANCH 121 122
ATOM    122  NE  ARG d  16    1689.413 514.249-1718.461  0.00  0.00    -0.227 N 
ATOM    123  CZ  ARG d  16    1689.805 514.729-1717.285  0.00  0.00     0.665 C 
ATOM    124  NH1 ARG d  16    1689.560 514.141-1716.147  0.00  0.00    -0.235 N 
ATOM    125  NH2 ARG d  16    1690.468 515.842-1717.265  0.00  0.00    -0.235 N 
ATOM    126 11HH ARG d  16    1689.035 513.268-1716.233  0.00  0.00     0.174 HD
ATOM    127 12HH ARG d  16    1689.895 514.575-1715.286  0.00  0.00     0.174 HD
ATOM    128 21HH ARG d  16    1690.652 516.288-1718.166  0.00  0.00     0.174 HD
ATOM    129 22HH ARG d  16    1690.759 516.195-1716.352  0.00  0.00     0.174 HD
ATOM    130  HE  ARG d  16    1689.690 514.832-1719.257  0.00  0.00     0.177 HD
ENDBRANCH 121 122
ENDBRANCH 120 121
ENDBRANCH 119 120
ENDBRANCH 116 119
ENDBRANCH 114 116
ENDBRANCH 111 112
BRANCH 111 131
ATOM    131  CB  MET d  15    1683.478 509.127-1722.964  0.00  0.00     0.045 C 
BRANCH 131 132
ATOM    132  CG  MET d  15    1682.317 508.128-1723.157  0.00  0.00     0.076 C 
BRANCH 132 133
ATOM    133  SD  MET d  15    1680.742 508.992-1723.039  0.00  0.00    -0.173 SA
ATOM    134  CE  MET d  15    1679.663 507.560-1722.904  0.00  0.00     0.089 C 
ENDBRANCH 132 133
ENDBRANCH 131 132
ENDBRANCH 111 131
ENDBRANCH 109 111
ENDBRANCH 106 107
BRANCH 106 135
ATOM    135  CB  VAL d  14    1685.929 504.456-1721.937  0.00  0.00     0.009 C 
ATOM    136  CG1 VAL d  14    1686.017 504.042-1723.432  0.00  0.00     0.012 C 
ATOM    137  CG2 VAL d  14    1686.364 503.203-1721.140  0.00  0.00     0.012 C 
ENDBRANCH 106 135
ENDBRANCH 104 106
ENDBRANCH 101 102
BRANCH 101 138
ATOM    138  CB  ARG d  13    1687.293 506.610-1717.195  0.00  0.00     0.036 C 
BRANCH 138 139
ATOM    139  CG  ARG d  13    1688.838 506.765-1717.116  0.00  0.00     0.023 C 
BRANCH 139 140
ATOM    140  CD  ARG d  13    1689.468 505.776-1716.121  0.00  0.00     0.138 C 
BRANCH 140 141
ATOM    141  NE  ARG d  13    1690.944 505.985-1716.072  0.00  0.00    -0.227 N 
ATOM    142  CZ  ARG d  13    1691.794 505.293-1715.320  0.00  0.00     0.665 C 
ATOM    143  NH1 ARG d  13    1691.432 504.326-1714.524  0.00  0.00    -0.235 N 
ATOM    144  NH2 ARG d  13    1693.053 505.594-1715.378  0.00  0.00    -0.235 N 
ATOM    145 11HH ARG d  13    1690.426 504.139-1714.527  0.00  0.00     0.174 HD
ATOM    146 12HH ARG d  13    1692.146 503.843-1713.978  0.00  0.00     0.174 HD
ATOM    147 21HH ARG d  13    1693.319 506.353-1716.007  0.00  0.00     0.174 HD
ATOM    148 22HH ARG d  13    1693.690 505.052-1714.791  0.00  0.00     0.174 HD
ATOM    149  HE  ARG d  13    1691.394 506.709-1716.642  0.00  0.00     0.177 HD
ENDBRANCH 140 141
ENDBRANCH 139 140
ENDBRANCH 138 139
ENDBRANCH 101 138
ENDBRANCH  99 101
ENDBRANCH  96  97
BRANCH  96 150
ATOM    150  CB  GLN d  12    1682.471 508.884-1717.187  0.00  0.00     0.044 C 
BRANCH 150 151
ATOM    151  CG  GLN d  12    1682.830 510.406-1717.153  0.00  0.00     0.105 C 
BRANCH 151 152
ATOM    152  CD  GLN d  12    1682.528 511.216-1715.885  0.00  0.00     0.215 C 
ATOM    153  NE2 GLN d  12    1681.963 510.637-1714.857  0.00  0.00    -0.370 N 
ATOM    154 21HE GLN d  12    1681.857 511.229-1714.032  0.00  0.00     0.159 HD
ATOM    155 22HE GLN d  12    1681.801 509.633-1714.963  0.00  0.00     0.159 HD
ATOM    156  OE1 GLN d  12    1682.829 512.397-1715.806  0.00  0.00    -0.274 OA
ENDBRANCH 151 152
ENDBRANCH 150 151
ENDBRANCH  96 150
ENDBRANCH  94  96
ENDBRANCH  91  92
BRANCH  91 157
ATOM    157  CB  VAL d  11    1680.627 504.374-1719.400  0.00  0.00     0.009 C 
ATOM    158  CG1 VAL d  11    1680.056 505.080-1720.660  0.00  0.00     0.012 C 
ATOM    159  CG2 VAL d  11    1680.104 502.919-1719.475  0.00  0.00     0.012 C 
ENDBRANCH  91 157
ENDBRANCH  89  91
ENDBRANCH   1  87
BRANCH   1 160
ATOM    160  CB  ARG d  10    1684.086 501.813-1716.167  0.00  0.00     0.036 C 
BRANCH 160 161
ATOM    161  CG  ARG d  10    1685.169 501.097-1717.021  0.00  0.00     0.023 C 
BRANCH 161 162
ATOM    162  CD  ARG d  10    1685.008 499.568-1716.995  0.00  0.00     0.138 C 
BRANCH 162 163
ATOM    163  NE  ARG d  10    1686.084 498.935-1717.813  0.00  0.00    -0.227 N 
ATOM    164  CZ  ARG d  10    1686.234 497.629-1718.008  0.00  0.00     0.665 C 
ATOM    165  NH1 ARG d  10    1685.439 496.727-1717.502  0.00  0.00    -0.235 N 
ATOM    166  NH2 ARG d  10    1687.224 497.225-1718.739  0.00  0.00    -0.235 N 
ATOM    167 11HH ARG d  10    1684.679 497.112-1716.937  0.00  0.00     0.174 HD
ATOM    168 12HH ARG d  10    1685.623 495.742-1717.698  0.00  0.00     0.174 HD
ATOM    169 21HH ARG d  10    1687.836 497.946-1719.128  0.00  0.00     0.174 HD
ATOM    170 22HH ARG d  10    1687.324 496.218-1718.876  0.00  0.00     0.174 HD
ATOM    171  HE  ARG d  10    1686.794 499.506-1718.283  0.00  0.00     0.177 HD
ENDBRANCH 162 163
ENDBRANCH 161 162
ENDBRANCH 160 161
ENDBRANCH   1 160
TORSDOF 70
