REMARK WARNING: 32 MAX_TORS EXCEEDED!!!
REMARK  66 active torsions:
REMARK  status: ('A' for Active; 'I' for Inactive)
REMARK    1  A    between atoms: N_1  and  CA_2 
REMARK    2  A    between atoms: CA_2  and  C_3 
REMARK    3  A    between atoms: CA_2  and  CB_5 
REMARK       I    between atoms: C_3  and  N_11 
REMARK    4  A    between atoms: CB_5  and  CG_6 
REMARK    5  A    between atoms: CG_6  and  CD_7 
REMARK    6  A    between atoms: N_11  and  CA_12 
REMARK    7  A    between atoms: CA_12  and  C_13 
REMARK    8  A    between atoms: CA_12  and  CB_15 
REMARK       I    between atoms: C_13  and  N_22 
REMARK    9  A    between atoms: CB_15  and  CG_16 
REMARK       I    between atoms: CG_16  and  ND2_17 
REMARK   10  A    between atoms: CA_23  and  C_24 
REMARK       I    between atoms: C_24  and  N_29 
REMARK   11  A    between atoms: N_29  and  CA_30 
REMARK   12  A    between atoms: CA_30  and  C_31 
REMARK   13  A    between atoms: CA_30  and  CB_33 
REMARK       I    between atoms: C_31  and  N_39 
REMARK   14  A    between atoms: CB_33  and  CG_34 
REMARK   15  A    between atoms: CG_34  and  CD_35 
REMARK   16  A    between atoms: N_39  and  CA_40 
REMARK   17  A    between atoms: CA_40  and  C_41 
REMARK   18  A    between atoms: CA_40  and  CB_43 
REMARK       I    between atoms: C_41  and  N_47 
REMARK   19  A    between atoms: CB_43  and  OG_44 
REMARK   20  A    between atoms: N_47  and  CA_48 
REMARK   21  A    between atoms: CA_48  and  C_49 
REMARK   22  A    between atoms: CA_48  and  CB_51 
REMARK       I    between atoms: C_49  and  N_56 
REMARK   23  A    between atoms: CB_51  and  CG1_52 
REMARK   24  A    between atoms: N_56  and  CA_57 
REMARK   25  A    between atoms: CA_57  and  C_58 
REMARK   26  A    between atoms: CA_57  and  CB_60 
REMARK       I    between atoms: C_58  and  N_65 
REMARK   27  A    between atoms: CB_60  and  CG_61 
REMARK   28  A    between atoms: N_65  and  CA_66 
REMARK   29  A    between atoms: CA_66  and  C_67 
REMARK   30  A    between atoms: CA_66  and  CB_69 
REMARK       I    between atoms: C_67  and  N_74 
REMARK   31  A    between atoms: CB_69  and  CG_70 
REMARK   32  A    between atoms: N_74  and  CA_75 
REMARK   33  A    between atoms: CA_75  and  C_76 
REMARK   34  A    between atoms: CA_75  and  CB_78 
REMARK       I    between atoms: C_76  and  N_84 
REMARK   35  A    between atoms: CB_78  and  CG_79 
REMARK   36  A    between atoms: CG_79  and  CD_80 
REMARK   37  A    between atoms: N_84  and  CA_85 
REMARK   38  A    between atoms: CA_85  and  C_86 
REMARK   39  A    between atoms: CA_85  and  CB_88 
REMARK       I    between atoms: C_86  and  N_96 
REMARK   40  A    between atoms: CB_88  and  CG_89 
REMARK   41  A    between atoms: N_96  and  CA_97 
REMARK   42  A    between atoms: CA_97  and  C_98 
REMARK   43  A    between atoms: CA_97  and  CB_100 
REMARK       I    between atoms: C_98  and  N_104 
REMARK   44  A    between atoms: N_104  and  CA_105 
REMARK   45  A    between atoms: CA_105  and  C_106 
REMARK   46  A    between atoms: CA_105  and  CB_108 
REMARK       I    between atoms: C_106  and  N_116 
REMARK   47  A    between atoms: CB_108  and  CG_109 
REMARK   48  A    between atoms: CG_109  and  CD_110 
REMARK       I    between atoms: CD_110  and  NE2_111 
REMARK   49  A    between atoms: N_116  and  CA_117 
REMARK   50  A    between atoms: CA_117  and  C_118 
REMARK   51  A    between atoms: CA_117  and  CB_120 
REMARK       I    between atoms: C_118  and  N_125 
REMARK   52  A    between atoms: CB_120  and  OG1_122 
REMARK   53  A    between atoms: N_125  and  CA_126 
REMARK   54  A    between atoms: CA_126  and  C_127 
REMARK   55  A    between atoms: CA_126  and  CB_129 
REMARK       I    between atoms: C_127  and  N_133 
REMARK   56  A    between atoms: N_133  and  CA_134 
REMARK   57  A    between atoms: CA_134  and  C_135 
REMARK   58  A    between atoms: CA_134  and  CB_137 
REMARK       I    between atoms: C_135  and  N_142 
REMARK   59  A    between atoms: CB_137  and  CG_138 
REMARK   60  A    between atoms: CG_138  and  SD_139 
REMARK   61  A    between atoms: N_142  and  CA_143 
REMARK   62  A    between atoms: CA_143  and  C_144 
REMARK   63  A    between atoms: CA_143  and  CB_146 
REMARK   64  A    between atoms: CB_146  and  CG_147 
REMARK   65  A    between atoms: CG_147  and  CD_148 
REMARK   66  A    between atoms: CD_148  and  NE_149 
REMARK       I    between atoms: NE_149  and  CZ_150 
REMARK       I    between atoms: CZ_150  and  NH1_151 
ROOT
ATOM      1  CA  GLU d   9    2121.561 648.914-2193.819  0.00  0.00     0.177 C 
ENDROOT
BRANCH   1   2
ATOM      2  N   GLU d   9    2120.258 648.257-2193.874  0.00  0.00    -0.346 N 
ATOM      3  C   ASP d   8    2119.578 648.306-2194.969  0.00  0.00     0.241 C 
ATOM      4  O   ASP d   8    2120.051 648.910-2195.944  0.00  0.00    -0.271 OA
ATOM      5  H   GLU d   9    2119.894 647.771-2193.067  0.00  0.00     0.163 HD
BRANCH   3   6
ATOM      6  CA  ASP d   8    2118.231 647.627-2195.026  0.00  0.00     0.186 C 
BRANCH   6   7
ATOM      7  N   ASP d   8    2118.301 646.278-2194.472  0.00  0.00    -0.346 N 
ATOM      8  C   LEU d   7    2119.137 645.436-2194.978  0.00  0.00     0.241 C 
ATOM      9  O   LEU d   7    2119.858 645.798-2195.920  0.00  0.00    -0.271 OA
ATOM     10  H   ASP d   8    2117.703 646.007-2193.704  0.00  0.00     0.163 HD
BRANCH   8  11
ATOM     11  CA  LEU d   7    2119.209 644.041-2194.405  0.00  0.00     0.177 C 
BRANCH  11  12
ATOM     12  N   LEU d   7    2119.264 644.077-2192.946  0.00  0.00    -0.346 N 
ATOM     13  C   ILE d   6    2120.210 644.741-2192.373  0.00  0.00     0.241 C 
ATOM     14  O   ILE d   6    2121.045 645.328-2193.077  0.00  0.00    -0.271 OA
ATOM     15  H   LEU d   7    2118.572 643.591-2192.395  0.00  0.00     0.163 HD
BRANCH  13  16
ATOM     16  CA  ILE d   6    2120.268 644.778-2190.865  0.00  0.00     0.180 C 
BRANCH  16  17
ATOM     17  N   ILE d   6    2118.954 645.074-2190.299  0.00  0.00    -0.346 N 
ATOM     18  C   SER d   5    2118.350 646.157-2190.653  0.00  0.00     0.243 C 
ATOM     19  O   SER d   5    2118.898 646.910-2191.458  0.00  0.00    -0.271 OA
ATOM     20  H   ILE d   6    2118.525 644.439-2189.640  0.00  0.00     0.163 HD
BRANCH  18  21
ATOM     21  CA  SER d   5    2116.991 646.463-2190.068  0.00  0.00     0.200 C 
BRANCH  21  22
ATOM     22  N   SER d   5    2116.121 645.292-2190.127  0.00  0.00    -0.344 N 
ATOM     23  C   GLU d   4    2115.894 644.739-2191.270  0.00  0.00     0.241 C 
ATOM     24  O   GLU d   4    2116.421 645.219-2192.284  0.00  0.00    -0.271 OA
ATOM     25  H   SER d   5    2115.704 644.920-2189.286  0.00  0.00     0.163 HD
BRANCH  23  26
ATOM     26  CA  GLU d   4    2114.995 643.529-2191.332  0.00  0.00     0.177 C 
BRANCH  26  27
ATOM     27  N   GLU d   4    2115.354 642.558-2190.302  0.00  0.00    -0.346 N 
ATOM     28  C   PRO d   3    2116.559 642.097-2190.269  0.00  0.00     0.241 C 
ATOM     29  O   PRO d   3    2117.383 642.480-2191.101  0.00  0.00    -0.271 OA
ATOM     30  H   GLU d   4    2114.670 642.251-2189.625  0.00  0.00     0.163 HD
BRANCH  28  31
ATOM     31  CA  PRO d   3    2116.957 641.074-2189.192  0.00  0.00     0.179 C 
ATOM     32  N   PRO d   3    2116.505 641.483-2187.871  0.00  0.00    -0.337 N 
ATOM     33  C   ASN d   2    2117.026 642.478-2187.237  0.00  0.00     0.243 C 
ATOM     34  CD  PRO d   3    2115.426 640.690-2187.322  0.00  0.00     0.127 C 
ATOM     35  O   ASN d   2    2117.941 643.108-2187.765  0.00  0.00    -0.271 OA
ATOM     36  CG  PRO d   3    2114.969 639.871-2188.532  0.00  0.00     0.022 C 
ATOM     37  CB  PRO d   3    2116.252 639.719-2189.362  0.00  0.00     0.037 C 
BRANCH  33  38
ATOM     38  CA  ASN d   2    2116.495 642.833-2185.868  0.00  0.00     0.185 C 
BRANCH  38  39
ATOM     39  N   ASN d   2    2115.035 642.872-2185.868  0.00  0.00    -0.346 N 
ATOM     40  C   GLU d   1    2114.431 643.658-2186.693  0.00  0.00     0.242 C 
ATOM     41  O   GLU d   1    2115.107 644.357-2187.462  0.00  0.00    -0.271 OA
ATOM     42  H   ASN d   2    2114.507 642.293-2185.232  0.00  0.00     0.163 HD
BRANCH  40  43
ATOM     43  CA  GLU d   1    2112.922 643.698-2186.693  0.00  0.00     0.191 C 
BRANCH  43  44
ATOM     44  N   GLU d   1    2112.363 642.349-2186.693  0.00  0.00    -0.326 NA
ATOM     45  H   GLU d   1    2112.990 641.470-2186.693  0.00  0.00     0.180 HD
ENDBRANCH  43  44
BRANCH  43  46
ATOM     46  CB  GLU d   1    2112.399 644.483-2185.457  0.00  0.00     0.047 C 
BRANCH  46  47
ATOM     47  CG  GLU d   1    2112.874 645.968-2185.345  0.00  0.00     0.116 C 
BRANCH  47  48
ATOM     48  CD  GLU d   1    2112.450 646.772-2184.130  0.00  0.00     0.172 C 
ATOM     49  OE1 GLU d   1    2111.722 646.270-2183.252  0.00  0.00    -0.648 OA
ATOM     50  OE2 GLU d   1    2112.880 647.942-2184.058  0.00  0.00    -0.648 OA
ENDBRANCH  47  48
ENDBRANCH  46  47
ENDBRANCH  43  46
ENDBRANCH  40  43
ENDBRANCH  38  39
BRANCH  38  51
ATOM     51  CB  ASN d   2    2116.986 641.810-2184.803  0.00  0.00     0.137 C 
BRANCH  51  52
ATOM     52  CG  ASN d   2    2116.523 642.034-2183.360  0.00  0.00     0.217 C 
ATOM     53  ND2 ASN d   2    2117.117 642.949-2182.642  0.00  0.00    -0.370 N 
ATOM     54 21HD ASN d   2    2116.636 643.122-2181.756  0.00  0.00     0.159 HD
ATOM     55 22HD ASN d   2    2117.819 643.521-2183.111  0.00  0.00     0.159 HD
ATOM     56  OD1 ASN d   2    2115.602 641.401-2182.866  0.00  0.00    -0.274 OA
ENDBRANCH  51  52
ENDBRANCH  38  51
ENDBRANCH  33  38
ENDBRANCH  28  31
ENDBRANCH  26  27
BRANCH  26  57
ATOM     57  CB  GLU d   4    2113.507 643.948-2191.162  0.00  0.00     0.045 C 
BRANCH  57  58
ATOM     58  CG  GLU d   4    2112.959 644.951-2192.228  0.00  0.00     0.116 C 
BRANCH  58  59
ATOM     59  CD  GLU d   4    2111.533 645.448-2192.085  0.00  0.00     0.172 C 
ATOM     60  OE1 GLU d   4    2110.806 645.050-2191.154  0.00  0.00    -0.648 OA
ATOM     61  OE2 GLU d   4    2111.144 646.278-2192.933  0.00  0.00    -0.648 OA
ENDBRANCH  58  59
ENDBRANCH  57  58
ENDBRANCH  26  57
ENDBRANCH  23  26
ENDBRANCH  21  22
BRANCH  21  62
ATOM     62  CB  SER d   5    2117.103 646.995-2188.618  0.00  0.00     0.199 C 
BRANCH  62  63
ATOM     63  OG  SER d   5    2117.833 646.115-2187.757  0.00  0.00    -0.398 OA
ATOM     64  HG  SER d   5    2117.344 645.291-2187.706  0.00  0.00     0.209 HD
ENDBRANCH  62  63
ENDBRANCH  21  62
ENDBRANCH  18  21
ENDBRANCH  16  17
BRANCH  16  65
ATOM     65  CB  ILE d   6    2120.867 643.442-2190.265  0.00  0.00     0.013 C 
ATOM     66  CG2 ILE d   6    2122.308 643.139-2190.780  0.00  0.00     0.012 C 
BRANCH  65  67
ATOM     67  CG1 ILE d   6    2120.885 643.379-2188.704  0.00  0.00     0.002 C 
ATOM     68  CD1 ILE d   6    2121.155 641.990-2188.089  0.00  0.00     0.005 C 
ENDBRANCH  65  67
ENDBRANCH  16  65
ENDBRANCH  13  16
ENDBRANCH  11  12
BRANCH  11  69
ATOM     69  CB  LEU d   7    2118.006 643.181-2194.885  0.00  0.00     0.038 C 
BRANCH  69  70
ATOM     70  CG  LEU d   7    2117.933 641.702-2194.419  0.00  0.00    -0.020 C 
ATOM     71  CD1 LEU d   7    2116.743 640.997-2195.084  0.00  0.00     0.009 C 
ATOM     72  CD2 LEU d   7    2119.226 640.922-2194.710  0.00  0.00     0.009 C 
ENDBRANCH  69  70
ENDBRANCH  11  69
ENDBRANCH   8  11
ENDBRANCH   6   7
BRANCH   6  73
ATOM     73  CB  ASP d   8    2117.153 648.467-2194.285  0.00  0.00     0.147 C 
BRANCH  73  74
ATOM     74  CG  ASP d   8    2116.935 649.888-2194.826  0.00  0.00     0.175 C 
ATOM     75  OD1 ASP d   8    2117.000 650.086-2196.057  0.00  0.00    -0.648 OA
ATOM     76  OD2 ASP d   8    2116.744 650.814-2194.011  0.00  0.00    -0.648 OA
ENDBRANCH  73  74
ENDBRANCH   6  73
ENDBRANCH   3   6
ENDBRANCH   1   2
BRANCH   1  77
ATOM     77  C   GLU d   9    2122.479 648.385-2194.895  0.00  0.00     0.241 C 
ATOM     78  O   GLU d   9    2123.142 649.138-2195.621  0.00  0.00    -0.271 OA
ATOM     79  N   HIS d  10    2122.574 647.109-2195.064  0.00  0.00    -0.346 N 
ATOM     80  H   HIS d  10    2122.044 646.475-2194.485  0.00  0.00     0.163 HD
BRANCH  79  81
ATOM     81  CA  HIS d  10    2123.462 646.597-2196.104  0.00  0.00     0.182 C 
BRANCH  81  82
ATOM     82  C   HIS d  10    2123.095 647.161-2197.456  0.00  0.00     0.241 C 
ATOM     83  O   HIS d  10    2123.948 647.625-2198.228  0.00  0.00    -0.271 OA
ATOM     84  N   VAL d  11    2121.857 647.161-2197.819  0.00  0.00    -0.346 N 
ATOM     85  H   VAL d  11    2121.144 646.789-2197.208  0.00  0.00     0.163 HD
BRANCH  84  86
ATOM     86  CA  VAL d  11    2121.502 647.706-2199.126  0.00  0.00     0.180 C 
BRANCH  86  87
ATOM     87  C   VAL d  11    2121.967 649.137-2199.259  0.00  0.00     0.241 C 
ATOM     88  O   VAL d  11    2122.568 649.541-2200.262  0.00  0.00    -0.271 OA
ATOM     89  N   GLN d  12    2121.731 649.963-2198.297  0.00  0.00    -0.346 N 
ATOM     90  H   GLN d  12    2121.242 649.657-2197.468  0.00  0.00     0.163 HD
BRANCH  89  91
ATOM     91  CA  GLN d  12    2122.180 651.346-2198.425  0.00  0.00     0.177 C 
BRANCH  91  92
ATOM     92  C   GLN d  12    2123.670 651.412-2198.663  0.00  0.00     0.241 C 
ATOM     93  O   GLN d  12    2124.157 652.120-2199.542  0.00  0.00    -0.271 OA
ATOM     94  N   THR d  13    2124.454 650.705-2197.922  0.00  0.00    -0.344 N 
ATOM     95  H   THR d  13    2124.077 650.116-2197.193  0.00  0.00     0.163 HD
BRANCH  94  96
ATOM     96  CA  THR d  13    2125.893 650.770-2198.153  0.00  0.00     0.205 C 
BRANCH  96  97
ATOM     97  C   THR d  13    2126.231 650.398-2199.576  0.00  0.00     0.243 C 
ATOM     98  O   THR d  13    2126.993 651.062-2200.250  0.00  0.00    -0.271 OA
ATOM     99  N   VAL d  14    2125.696 649.344-2200.092  0.00  0.00    -0.346 N 
ATOM    100  H   VAL d  14    2125.060 648.775-2199.551  0.00  0.00     0.163 HD
BRANCH  99 101
ATOM    101  CA  VAL d  14    2126.023 648.984-2201.469  0.00  0.00     0.180 C 
BRANCH 101 102
ATOM    102  C   VAL d  14    2125.695 650.114-2202.415  0.00  0.00     0.241 C 
ATOM    103  O   VAL d  14    2126.490 650.495-2203.283  0.00  0.00    -0.271 OA
ATOM    104  N   MET d  15    2124.551 650.701-2202.315  0.00  0.00    -0.346 N 
ATOM    105  H   MET d  15    2123.884 650.409-2201.615  0.00  0.00     0.163 HD
BRANCH 104 106
ATOM    106  CA  MET d  15    2124.232 651.794-2203.229  0.00  0.00     0.177 C 
BRANCH 106 107
ATOM    107  C   MET d  15    2125.263 652.893-2203.140  0.00  0.00     0.241 C 
ATOM    108  O   MET d  15    2125.768 653.403-2204.151  0.00  0.00    -0.271 OA
ATOM    109  N   ARG d  16    2125.630 653.314-2201.977  0.00  0.00    -0.347 N 
ATOM    110  H   ARG d  16    2125.234 652.914-2201.138  0.00  0.00     0.163 HD
BRANCH 109 111
ATOM    111  CA  ARG d  16    2126.627 654.377-2201.891  0.00  0.00     0.162 C 
BRANCH 111 112
ATOM    112  C   ARG d  16    2127.899 653.984-2202.605  0.00  0.00     0.219 C 
ATOM    113  O   ARG d  16    2128.013 652.907-2203.187  0.00  0.00    -0.287 OA
ENDBRANCH 111 112
BRANCH 111 114
ATOM    114  CB  ARG d  16    2126.894 654.695-2200.393  0.00  0.00     0.035 C 
BRANCH 114 115
ATOM    115  CG  ARG d  16    2127.719 655.984-2200.118  0.00  0.00     0.023 C 
BRANCH 115 116
ATOM    116  CD  ARG d  16    2127.967 656.203-2198.617  0.00  0.00     0.138 C 
BRANCH 116 117
ATOM    117  NE  ARG d  16    2128.743 657.461-2198.414  0.00  0.00    -0.227 N 
ATOM    118  CZ  ARG d  16    2129.132 657.944-2197.238  0.00  0.00     0.665 C 
ATOM    119  NH1 ARG d  16    2128.882 657.359-2196.100  0.00  0.00    -0.235 N 
ATOM    120  NH2 ARG d  16    2129.797 659.056-2197.218  0.00  0.00    -0.235 N 
ATOM    121 11HH ARG d  16    2128.356 656.487-2196.185  0.00  0.00     0.174 HD
ATOM    122 12HH ARG d  16    2129.216 657.795-2195.238  0.00  0.00     0.174 HD
ATOM    123 21HH ARG d  16    2129.984 659.499-2198.120  0.00  0.00     0.174 HD
ATOM    124 22HH ARG d  16    2130.085 659.411-2196.305  0.00  0.00     0.174 HD
ATOM    125  HE  ARG d  16    2129.023 658.042-2199.211  0.00  0.00     0.177 HD
ENDBRANCH 116 117
ENDBRANCH 115 116
ENDBRANCH 114 115
ENDBRANCH 111 114
ENDBRANCH 109 111
ENDBRANCH 106 107
BRANCH 106 126
ATOM    126  CB  MET d  15    2122.811 652.340-2202.923  0.00  0.00     0.045 C 
BRANCH 126 127
ATOM    127  CG  MET d  15    2121.649 651.343-2203.116  0.00  0.00     0.076 C 
BRANCH 127 128
ATOM    128  SD  MET d  15    2120.075 652.210-2203.005  0.00  0.00    -0.173 SA
ATOM    129  CE  MET d  15    2118.993 650.781-2202.870  0.00  0.00     0.089 C 
ENDBRANCH 127 128
ENDBRANCH 126 127
ENDBRANCH 106 126
ENDBRANCH 104 106
ENDBRANCH 101 102
BRANCH 101 130
ATOM    130  CB  VAL d  14    2125.251 647.668-2201.877  0.00  0.00     0.009 C 
ATOM    131  CG1 VAL d  14    2125.343 647.249-2203.371  0.00  0.00     0.012 C 
ATOM    132  CG2 VAL d  14    2125.681 646.415-2201.076  0.00  0.00     0.012 C 
ENDBRANCH 101 130
ENDBRANCH  99 101
ENDBRANCH  96  97
BRANCH  96 133
ATOM    133  CB  THR d  13    2126.654 649.844-2197.143  0.00  0.00     0.146 C 
ATOM    134  CG2 THR d  13    2128.192 649.804-2197.277  0.00  0.00     0.042 C 
BRANCH 133 135
ATOM    135  OG1 THR d  13    2126.423 650.268-2195.806  0.00  0.00    -0.393 OA
ATOM    136  1HG THR d  13    2126.856 649.620-2195.242  0.00  0.00     0.210 HD
ENDBRANCH 133 135
ENDBRANCH  96 133
ENDBRANCH  94  96
ENDBRANCH  91  92
BRANCH  91 137
ATOM    137  CB  GLN d  12    2121.790 652.114-2197.143  0.00  0.00     0.044 C 
BRANCH 137 138
ATOM    138  CG  GLN d  12    2122.151 653.636-2197.112  0.00  0.00     0.105 C 
BRANCH 138 139
ATOM    139  CD  GLN d  12    2121.849 654.450-2195.848  0.00  0.00     0.215 C 
ATOM    140  NE2 GLN d  12    2121.282 653.874-2194.819  0.00  0.00    -0.370 N 
ATOM    141 21HE GLN d  12    2121.176 654.469-2193.995  0.00  0.00     0.159 HD
ATOM    142 22HE GLN d  12    2121.118 652.871-2194.921  0.00  0.00     0.159 HD
ATOM    143  OE1 GLN d  12    2122.152 655.631-2195.771  0.00  0.00    -0.274 OA
ENDBRANCH 138 139
ENDBRANCH 137 138
ENDBRANCH  91 137
ENDBRANCH  89  91
ENDBRANCH  86  87
BRANCH  86 144
ATOM    144  CB  VAL d  11    2119.940 647.600-2199.345  0.00  0.00     0.009 C 
ATOM    145  CG1 VAL d  11    2119.372 648.304-2200.608  0.00  0.00     0.012 C 
ATOM    146  CG2 VAL d  11    2119.415 646.147-2199.417  0.00  0.00     0.012 C 
ENDBRANCH  86 144
ENDBRANCH  84  86
ENDBRANCH  81  82
BRANCH  81 147
ATOM    147  CB  HIS d  10    2123.297 645.068-2196.099  0.00  0.00     0.095 C 
BRANCH 147 148
ATOM    148  CG  HIS d  10    2124.583 644.357-2195.791  0.00  0.00     0.053 A 
ATOM    149  CD2 HIS d  10    2124.964 644.023-2194.498  0.00  0.00     0.116 A 
ATOM    150  NE2 HIS d  10    2126.178 643.391-2194.565  0.00  0.00    -0.359 N 
ATOM    151  CE1 HIS d  10    2126.440 643.393-2195.900  0.00  0.00     0.207 A 
ATOM    152  2HE HIS d  10    2126.745 643.014-2193.792  0.00  0.00     0.166 HD
ATOM    153  ND1 HIS d  10    2125.534 643.951-2196.723  0.00  0.00    -0.247 NA
ENDBRANCH 147 148
ENDBRANCH  81 147
ENDBRANCH  79  81
ENDBRANCH   1  77
BRANCH   1 154
ATOM    154  CB  GLU d   9    2122.195 648.706-2192.414  0.00  0.00     0.045 C 
BRANCH 154 155
ATOM    155  CG  GLU d   9    2123.578 649.398-2192.185  0.00  0.00     0.116 C 
BRANCH 155 156
ATOM    156  CD  GLU d   9    2124.280 649.185-2190.857  0.00  0.00     0.172 C 
ATOM    157  OE1 GLU d   9    2123.758 648.495-2189.960  0.00  0.00    -0.648 OA
ATOM    158  OE2 GLU d   9    2125.399 649.722-2190.726  0.00  0.00    -0.648 OA
ENDBRANCH 155 156
ENDBRANCH 154 155
ENDBRANCH   1 154
TORSDOF 66
