@<TRIPOS>MOLECULE
2-14
265 266 16              
SMALL
USER_CHARGES
@<TRIPOS>ATOM
1	   N	280.964	57.932	-257.773	N.3	1	GLU1	-0.516	
2	  CA	281.523	59.281	-257.773	C.3	1	GLU1	0.040	
3	   C	283.032	59.241	-257.773	C.2	1	GLU1	0.537	
4	   O	283.708	59.940	-258.541	O.2	1	GLU1	-0.582	
5	  CB	281.000	60.066	-256.536	C.3	1	GLU1	0.056	
6	  CG	281.475	61.551	-256.425	C.3	1	GLU1	0.014	
7	  CD	281.051	62.355	-255.210	C.2	1	GLU1	0.805	
8	 OE1	280.323	61.853	-254.332	O.co2	1	GLU1	-0.819	
9	 OE2	281.481	63.525	-255.138	O.co2	1	GLU1	-0.819	
10	   H	281.591	57.053	-257.773	 H	1	GLU1	0.294	
11	  HA	281.197	59.799	-258.693	 H	1	GLU1	0.111	
12	 2HB	281.289	59.535	-255.606	 H	1	GLU1	-0.017	
13	 3HB	279.893	60.056	-256.523	 H	1	GLU1	-0.017	
14	 2HG	281.165	62.136	-257.306	 H	1	GLU1	-0.043	
15	 3HG	282.575	61.618	-256.396	 H	1	GLU1	-0.043	
16	   N	283.637	58.455	-256.947	N.am	2	THR2	-0.416	
17	  CA	285.096	58.417	-256.948	C.3	2	THR2	-0.039	
18	   C	285.628	58.061	-258.315	C.2	2	THR2	0.597	
19	   O	286.531	58.685	-258.835	O.2	2	THR2	-0.568	
20	  CB	285.619	57.407	-255.870	C.3	2	THR2	0.365	
21	 CG2	287.152	57.255	-255.764	C.3	2	THR2	-0.244	
22	 OG1	285.210	57.809	-254.569	O.3	2	THR2	-0.676	
23	   H	283.109	57.875	-256.311	 H	2	THR2	0.272	
24	  HA	285.471	59.426	-256.700	 H	2	THR2	0.101	
25	  HB	285.183	56.408	-256.087	 H	2	THR2	0.004	
26	 1HG	285.501	57.114	-253.972	 H	2	THR2	0.410	
27	1HG2	287.445	56.544	-254.969	 H	2	THR2	0.064	
28	2HG2	287.604	56.865	-256.695	 H	2	THR2	0.064	
29	3HG2	287.646	58.219	-255.540	 H	2	THR2	0.064	
30	   N	285.108	57.066	-258.950	N.am	3	PRO3	-0.255	
31	  CA	285.562	56.658	-260.271	C.3	3	PRO3	-0.027	
32	   C	285.164	57.681	-261.348	C.2	3	PRO3	0.590	
33	   O	285.988	58.065	-262.179	O.2	3	PRO3	-0.575	
34	  CB	284.859	55.302	-260.442	C.3	3	PRO3	-0.007	
35	  CG	283.574	55.454	-259.613	C.3	3	PRO3	0.019	
36	  CD	284.030	56.272	-258.403	C.3	3	PRO3	0.019	
37	  HA	286.648	56.538	-260.284	 H	3	PRO3	0.064	
38	 2HB	285.482	54.522	-260.001	 H	3	PRO3	0.025	
39	 3HB	284.662	55.054	-261.487	 H	3	PRO3	0.025	
40	 2HG	283.147	54.491	-259.323	 H	3	PRO3	0.021	
41	 3HG	282.837	56.024	-260.181	 H	3	PRO3	0.021	
42	 2HD	284.419	55.623	-257.615	 H	3	PRO3	0.039	
43	 3HD	283.232	56.907	-258.010	 H	3	PRO3	0.039	
44	   N	283.959	58.140	-261.382	N.am	4	GLU4	-0.516	
45	  CA	283.600	59.111	-262.412	C.3	4	GLU4	0.040	
46	   C	284.498	60.323	-262.349	C.2	4	GLU4	0.537	
47	   O	285.025	60.803	-263.363	O.2	4	GLU4	-0.582	
48	  CB	282.111	59.529	-262.243	C.3	4	GLU4	0.056	
49	  CG	281.563	60.532	-263.309	C.3	4	GLU4	0.014	
50	  CD	280.136	61.028	-263.167	C.2	4	GLU4	0.805	
51	 OE1	279.409	60.628	-262.237	O.co2	4	GLU4	-0.819	
52	 OE2	279.747	61.857	-264.016	O.co2	4	GLU4	-0.819	
53	   H	283.275	57.833	-260.706	 H	4	GLU4	0.294	
54	  HA	283.733	58.641	-263.403	 H	4	GLU4	0.111	
55	 2HB	281.957	59.968	-261.236	 H	4	GLU4	-0.017	
56	 3HB	281.464	58.630	-262.250	 H	4	GLU4	-0.017	
57	 2HG	281.647	60.118	-264.327	 H	4	GLU4	-0.043	
58	 3HG	282.151	61.465	-263.319	 H	4	GLU4	-0.043	
59	   N	284.723	60.876	-261.206	N.am	5	SER5	-0.416	
60	  CA	285.592	62.048	-261.146	C.3	5	SER5	-0.025	
61	   C	286.952	61.743	-261.730	C.2	5	SER5	0.597	
62	   O	287.499	62.498	-262.534	O.2	5	SER5	-0.568	
63	  CB	285.701	62.580	-259.695	C.3	5	SER5	0.212	
64	  OG	286.433	61.701	-258.833	O.3	5	SER5	-0.655	
65	   H	284.306	60.503	-260.365	 H	5	SER5	0.272	
66	  HA	285.143	62.838	-261.775	 H	5	SER5	0.084	
67	 2HB	284.701	62.772	-259.263	 H	5	SER5	0.035	
68	 3HB	286.206	63.566	-259.696	 H	5	SER5	0.035	
69	  HG	285.944	60.875	-258.783	 H	5	SER5	0.428	
70	   N	287.557	60.661	-261.375	N.am	6	ILE6	-0.416	
71	  CA	288.871	60.367	-261.940	C.3	6	ILE6	-0.060	
72	   C	288.816	60.330	-263.448	C.2	6	ILE6	0.597	
73	   O	289.651	60.919	-264.150	O.2	6	ILE6	-0.568	
74	  CB	289.471	59.031	-261.339	C.3	6	ILE6	0.130	
75	 CG1	289.489	58.969	-259.778	C.3	6	ILE6	-0.043	
76	 CG2	290.913	58.731	-261.853	C.3	6	ILE6	-0.320	
77	 CD1	289.759	57.580	-259.163	C.3	6	ILE6	-0.066	
78	   H	287.128	60.026	-260.717	 H	6	ILE6	0.272	
79	  HA	289.544	61.202	-261.671	 H	6	ILE6	0.087	
80	  HB	288.815	58.205	-261.684	 H	6	ILE6	0.019	
81	2HG1	288.506	59.288	-259.384	 H	6	ILE6	0.024	
82	3HG1	290.203	59.711	-259.373	 H	6	ILE6	0.024	
83	1HG2	290.974	58.638	-262.951	 H	6	ILE6	0.088	
84	2HG2	291.635	59.514	-261.550	 H	6	ILE6	0.088	
85	3HG2	291.304	57.769	-261.474	 H	6	ILE6	0.088	
86	1HD1	289.032	56.825	-259.519	 H	6	ILE6	0.019	
87	2HD1	290.770	57.202	-259.398	 H	6	ILE6	0.019	
88	3HD1	289.681	57.609	-258.061	 H	6	ILE6	0.019	
89	   N	287.871	59.666	-264.023	N.am	7	LEU7	-0.416	
90	  CA	287.818	59.630	-265.481	C.3	7	LEU7	-0.052	
91	   C	287.746	61.025	-266.053	C.2	7	LEU7	0.597	
92	   O	288.467	61.389	-266.994	O.2	7	LEU7	-0.568	
93	  CB	286.617	58.769	-265.964	C.3	7	LEU7	-0.110	
94	  CG	286.544	57.289	-265.498	C.3	7	LEU7	0.353	
95	 CD1	285.356	56.583	-266.165	C.3	7	LEU7	-0.412	
96	 CD2	287.839	56.511	-265.788	C.3	7	LEU7	-0.412	
97	   H	287.179	59.178	-263.472	 H	7	LEU7	0.272	
98	  HA	288.761	59.191	-265.855	 H	7	LEU7	0.092	
99	 2HB	286.595	58.785	-267.071	 H	7	LEU7	0.046	
100	 3HB	285.676	59.271	-265.660	 H	7	LEU7	0.046	
101	  HG	286.373	57.281	-264.401	 H	7	LEU7	-0.036	
102	1HD1	284.398	57.091	-265.943	 H	7	LEU7	0.100	
103	2HD1	285.457	56.543	-267.266	 H	7	LEU7	0.100	
104	3HD1	285.250	55.541	-265.809	 H	7	LEU7	0.100	
105	1HD2	288.116	56.542	-266.857	 H	7	LEU7	0.100	
106	2HD2	288.691	56.923	-265.215	 H	7	LEU7	0.100	
107	3HD2	287.758	55.449	-265.492	 H	7	LEU7	0.100	
108	   N	286.907	61.865	-265.548	N.am	8	ASP8	-0.516	
109	  CA	286.836	63.215	-266.101	C.3	8	ASP8	0.038	
110	   C	288.182	63.896	-266.042	C.2	8	ASP8	0.537	
111	   O	288.655	64.502	-267.015	O.2	8	ASP8	-0.582	
112	  CB	285.756	64.053	-265.360	C.3	8	ASP8	-0.030	
113	  CG	285.537	65.473	-265.900	C.2	8	ASP8	0.799	
114	 OD1	285.602	65.673	-267.131	O.co2	8	ASP8	-0.801	
115	 OD2	285.343	66.399	-265.085	O.co2	8	ASP8	-0.801	
116	   H	286.308	61.593	-264.781	 H	8	ASP8	0.294	
117	  HA	286.555	63.137	-267.168	 H	8	ASP8	0.088	
118	 2HB	286.012	64.136	-264.288	 H	8	ASP8	-0.012	
119	 3HB	284.778	63.547	-265.394	 H	8	ASP8	-0.012	
120	   N	288.860	63.846	-264.945	N.am	9	GLU9	-0.516	
121	  CA	290.162	64.505	-264.888	C.3	9	GLU9	0.040	
122	   C	291.082	63.979	-265.963	C.2	9	GLU9	0.537	
123	   O	291.747	64.734	-266.687	O.2	9	GLU9	-0.582	
124	  CB	290.794	64.297	-263.482	C.3	9	GLU9	0.056	
125	  CG	292.176	64.991	-263.250	C.3	9	GLU9	0.014	
126	  CD	292.876	64.778	-261.921	C.2	9	GLU9	0.805	
127	 OE1	292.354	64.086	-261.026	O.co2	9	GLU9	-0.819	
128	 OE2	293.995	65.316	-261.788	O.co2	9	GLU9	-0.819	
129	   H	288.496	63.359	-264.139	 H	9	GLU9	0.294	
130	  HA	290.020	65.587	-265.063	 H	9	GLU9	0.111	
131	 2HB	290.908	63.213	-263.279	 H	9	GLU9	-0.017	
132	 3HB	290.096	64.650	-262.698	 H	9	GLU9	-0.017	
133	 2HG	292.103	66.081	-263.390	 H	9	GLU9	-0.043	
134	 3HG	292.924	64.647	-263.984	 H	9	GLU9	-0.043	
135	   N	291.180	62.704	-266.133	N.am	10	HIS10	-0.416	
136	  CA	292.070	62.193	-267.172	C.3	10	HIS10	-0.058	
137	   C	291.704	62.758	-268.524	C.2	10	HIS10	0.597	
138	   O	292.557	63.224	-269.294	O.2	10	HIS10	-0.568	
139	  CB	291.908	60.664	-267.168	C.3	10	HIS10	-0.007	
140	  CG	293.194	59.955	-266.859	C.2	10	HIS10	0.187	
141	 CD2	293.573	59.620	-265.566	C.2	10	HIS10	-0.221	
142	 ND1	294.147	59.551	-267.790	N.2	10	HIS10	-0.543	
143	 CE1	295.053	58.993	-266.966	C.2	10	HIS10	0.163	
144	 NE2	294.789	58.990	-265.631	N.pl3	10	HIS10	-0.280	
145	   H	290.649	62.067	-265.555	 H	10	HIS10	0.272	
146	  HA	293.088	62.552	-266.946	 H	10	HIS10	0.136	
147	 2HB	291.544	60.297	-268.149	 H	10	HIS10	0.037	
148	 3HB	291.151	60.326	-266.429	 H	10	HIS10	0.037	
149	 2HD	292.986	59.834	-264.677	 H	10	HIS10	0.186	
150	 1HE	295.945	58.573	-267.412	 H	10	HIS10	0.144	
151	 2HE	295.355	58.613	-264.857	 H	10	HIS10	0.334	
152	   N	290.467	62.756	-268.888	N.am	11	VAL11	-0.416	
153	  CA	290.113	63.302	-270.195	C.3	11	VAL11	-0.087	
154	   C	290.576	64.734	-270.326	C.2	11	VAL11	0.597	
155	   O	291.178	65.140	-271.328	O.2	11	VAL11	-0.568	
156	  CB	288.552	63.194	-270.417	C.3	11	VAL11	0.299	
157	 CG1	287.985	63.898	-271.680	C.3	11	VAL11	-0.319	
158	 CG2	288.029	61.740	-270.491	C.3	11	VAL11	-0.319	
159	   H	289.754	62.382	-268.279	 H	11	VAL11	0.272	
160	  HA	290.634	62.721	-270.977	 H	11	VAL11	0.097	
161	  HB	288.063	63.674	-269.542	 H	11	VAL11	-0.030	
162	1HG1	288.425	63.507	-272.617	 H	11	VAL11	0.079	
163	2HG1	286.886	63.790	-271.763	 H	11	VAL11	0.079	
164	3HG1	288.162	64.991	-271.670	 H	11	VAL11	0.079	
165	1HG2	288.319	61.152	-269.601	 H	11	VAL11	0.079	
166	2HG2	286.924	61.702	-270.535	 H	11	VAL11	0.079	
167	3HG2	288.413	61.200	-271.378	 H	11	VAL11	0.079	
168	   N	290.337	65.559	-269.364	N.am	12	GLN12	-0.416	
169	  CA	290.784	66.942	-269.490	C.3	12	GLN12	-0.003	
170	   C	292.274	67.011	-269.726	C.2	12	GLN12	0.597	
171	   O	292.762	67.720	-270.603	O.2	12	GLN12	-0.568	
172	  CB	290.391	67.709	-268.207	C.3	12	GLN12	-0.004	
173	  CG	290.749	69.231	-268.175	C.3	12	GLN12	-0.064	
174	  CD	290.444	70.043	-266.910	C.2	12	GLN12	0.695	
175	 NE2	289.876	69.466	-265.883	N.pl3	12	GLN12	-0.941	
176	 OE1	290.745	71.225	-266.832	O.2	12	GLN12	-0.609	
177	   H	289.847	65.252	-268.536	 H	12	GLN12	0.272	
178	  HA	290.286	67.398	-270.365	 H	12	GLN12	0.085	
179	 2HB	290.866	67.209	-267.338	 H	12	GLN12	0.017	
180	 3HB	289.300	67.600	-268.046	 H	12	GLN12	0.017	
181	 2HG	290.272	69.751	-269.026	 H	12	GLN12	0.035	
182	 3HG	291.833	69.374	-268.339	 H	12	GLN12	0.035	
183	1HE2	289.767	70.060	-265.059	 H	12	GLN12	0.425	
184	2HE2	289.714	68.462	-265.987	 H	12	GLN12	0.425	
185	   N	293.059	66.305	-268.984	N.am	13	ARG13	-0.348	
186	  CA	294.499	66.372	-269.213	C.3	13	ARG13	-0.264	
187	   C	294.838	66.002	-270.637	C.2	13	ARG13	0.734	
188	   O	295.607	66.675	-271.320	O.2	13	ARG13	-0.589	
189	  CB	295.212	65.434	-268.198	C.3	13	ARG13	-0.001	
190	  CG	296.757	65.588	-268.115	C.3	13	ARG13	0.039	
191	  CD	297.383	64.601	-267.117	C.3	13	ARG13	0.049	
192	  NE	298.860	64.810	-267.064	N.pl3	13	ARG13	-0.530	
193	  CZ	299.708	64.118	-266.308	C.cat	13	ARG13	0.808	
194	 NH1	299.343	63.153	-265.512	N.pl3	13	ARG13	-0.863	
195	 NH2	300.967	64.419	-266.363	N.pl3	13	ARG13	-0.863	
196	   H	292.682	65.714	-268.256	 H	13	ARG13	0.275	
197	  HA	294.822	67.419	-269.053	 H	13	ARG13	0.156	
198	 2HB	294.947	64.383	-268.438	 H	13	ARG13	0.033	
199	 3HB	294.785	65.599	-267.188	 H	13	ARG13	0.033	
200	 2HG	297.003	66.633	-267.835	 H	13	ARG13	0.029	
201	 3HG	297.209	65.433	-269.116	 H	13	ARG13	0.029	
202	 2HD	297.141	63.561	-267.427	 H	13	ARG13	0.069	
203	 3HD	296.925	64.745	-266.115	 H	13	ARG13	0.069	
204	  HE	299.312	65.532	-267.634	 H	13	ARG13	0.346	
205	1HH1	298.338	62.966	-265.517	 H	13	ARG13	0.448	
206	2HH1	300.056	62.671	-264.962	 H	13	ARG13	0.448	
207	1HH2	301.235	65.177	-266.993	 H	13	ARG13	0.448	
208	2HH2	301.602	63.878	-265.774	 H	13	ARG13	0.448	
209	   N	294.304	64.947	-271.153	N.am	14	VAL14	-0.416	
210	  CA	294.631	64.589	-272.530	C.3	14	VAL14	-0.087	
211	   C	294.301	65.719	-273.476	C.2	14	VAL14	0.597	
212	   O	295.095	66.102	-274.344	O.2	14	VAL14	-0.568	
213	  CB	293.860	63.271	-272.939	C.3	14	VAL14	0.299	
214	 CG1	293.952	62.854	-274.433	C.3	14	VAL14	-0.319	
215	 CG2	294.292	62.019	-272.139	C.3	14	VAL14	-0.319	
216	   H	293.668	64.378	-270.612	 H	14	VAL14	0.272	
217	  HA	295.719	64.413	-272.604	 H	14	VAL14	0.097	
218	  HB	292.783	63.441	-272.725	 H	14	VAL14	-0.030	
219	1HG1	294.994	62.678	-274.760	 H	14	VAL14	0.079	
220	2HG1	293.380	61.930	-274.647	 H	14	VAL14	0.079	
221	3HG1	293.523	63.616	-275.111	 H	14	VAL14	0.079	
222	1HG2	294.204	62.177	-271.048	 H	14	VAL14	0.079	
223	2HG2	293.658	61.142	-272.372	 H	14	VAL14	0.079	
224	3HG2	295.341	61.730	-272.343	 H	14	VAL14	0.079	
225	   N	293.155	66.304	-273.375	N.am	15	MET15	-0.416	
226	  CA	292.835	67.397	-274.289	C.3	15	MET15	-0.024	
227	   C	293.864	68.498	-274.199	C.2	15	MET15	0.597	
228	   O	294.368	69.009	-275.211	O.2	15	MET15	-0.568	
229	  CB	291.413	67.941	-273.982	C.3	15	MET15	0.034	
230	  CG	290.252	66.941	-274.176	C.3	15	MET15	0.002	
231	  SD	288.677	67.806	-274.063	S.3	15	MET15	-0.274	
232	  CE	287.597	66.375	-273.929	C.3	15	MET15	-0.054	
233	   H	292.490	66.010	-272.675	 H	15	MET15	0.272	
234	  HA	292.863	67.010	-275.325	 H	15	MET15	0.088	
235	 2HB	291.210	68.820	-274.624	 H	15	MET15	0.024	
236	 3HB	291.375	68.333	-272.945	 H	15	MET15	0.024	
237	 2HG	290.295	66.155	-273.398	 H	15	MET15	0.044	
238	 3HG	290.317	66.427	-275.152	 H	15	MET15	0.044	
239	 1HE	287.743	65.687	-274.781	 H	15	MET15	0.068	
240	 2HE	287.806	65.822	-272.996	 H	15	MET15	0.068	
241	 3HE	286.539	66.689	-273.914	 H	15	MET15	0.068	
242	   N	294.231	68.918	-273.036	N.am	16	ARG16	-0.348	
243	  CA	295.226	69.983	-272.950	C.3	16	ARG16	-0.264	
244	   C	296.498	69.592	-273.665	C.2	16	ARG16	0.734	
245	   O	296.614	68.516	-274.247	O.2	16	ARG16	-0.589	
246	  CB	295.493	70.301	-271.452	C.3	16	ARG16	-0.001	
247	  CG	296.316	71.590	-271.177	C.3	16	ARG16	0.039	
248	  CD	296.563	71.809	-269.675	C.3	16	ARG16	0.049	
249	  NE	297.338	73.069	-269.472	N.pl3	16	ARG16	-0.530	
250	  CZ	297.727	73.551	-268.296	C.cat	16	ARG16	0.808	
251	 NH1	297.478	72.966	-267.158	N.pl3	16	ARG16	-0.863	
252	 NH2	298.390	74.664	-268.276	N.pl3	16	ARG16	-0.863	
253	   H	293.835	68.517	-272.198	 H	16	ARG16	0.275	
254	  HA	294.817	70.876	-273.460	 H	16	ARG16	0.156	
255	 2HB	295.990	69.425	-270.985	 H	16	ARG16	0.033	
256	 3HB	294.523	70.380	-270.919	 H	16	ARG16	0.033	
257	 2HG	295.785	72.461	-271.614	 H	16	ARG16	0.029	
258	 3HG	297.290	71.539	-271.705	 H	16	ARG16	0.029	
259	 2HD	297.112	70.935	-269.262	 H	16	ARG16	0.069	
260	 3HD	295.590	71.850	-269.141	 H	16	ARG16	0.069	
261	  HE	297.617	73.650	-270.269	 H	16	ARG16	0.346	
262	1HH1	296.954	72.092	-267.244	 H	16	ARG16	0.448	
263	2HH1	297.811	73.401	-266.296	 H	16	ARG16	0.448	
264	1HH2	298.576	75.108	-269.177	 H	16	ARG16	0.448	
265	2HH2	298.678	75.019	-267.363	 H	16	ARG16	0.448	
@<TRIPOS>BOND
1 1 2 1
2 1 10 1
3 2 3 1
4 2 5 1
5 2 11 1
6 3 4 2
7 3 16 1
8 5 6 1
9 6 7 1
10 7 8 2
11 7 9 1
12 5 12 1
13 5 13 1
14 6 14 1
15 6 15 1
16 16 17 1
17 16 23 1
18 17 18 1
19 17 20 1
20 17 24 1
21 18 19 2
22 18 30 1
23 20 21 1
24 20 22 1
25 20 25 1
26 22 26 1
27 21 27 1
28 21 28 1
29 21 29 1
30 30 31 1
31 30 36 1
32 31 32 1
33 31 34 1
34 31 37 1
35 32 33 2
36 32 44 1
37 34 35 1
38 35 36 1
39 34 38 1
40 34 39 1
41 35 40 1
42 35 41 1
43 36 42 1
44 36 43 1
45 44 45 1
46 44 53 1
47 45 46 1
48 45 48 1
49 45 54 1
50 46 47 2
51 46 59 1
52 48 49 1
53 49 50 1
54 50 51 2
55 50 52 1
56 48 55 1
57 48 56 1
58 49 57 1
59 49 58 1
60 59 60 1
61 59 65 1
62 60 61 1
63 60 63 1
64 60 66 1
65 61 62 2
66 61 70 1
67 63 64 1
68 63 67 1
69 63 68 1
70 64 69 1
71 70 71 1
72 70 78 1
73 71 72 1
74 71 74 1
75 71 79 1
76 72 73 2
77 72 89 1
78 74 75 1
79 74 76 1
80 75 77 1
81 74 80 1
82 75 81 1
83 75 82 1
84 76 83 1
85 76 84 1
86 76 85 1
87 77 86 1
88 77 87 1
89 77 88 1
90 89 90 1
91 89 97 1
92 90 91 1
93 90 93 1
94 90 98 1
95 91 92 2
96 91 108 1
97 93 94 1
98 94 95 1
99 94 96 1
100 93 99 1
101 93 100 1
102 94 101 1
103 95 102 1
104 95 103 1
105 95 104 1
106 96 105 1
107 96 106 1
108 96 107 1
109 108 109 1
110 108 116 1
111 109 110 1
112 109 112 1
113 109 117 1
114 110 111 2
115 110 120 1
116 112 113 1
117 113 114 2
118 113 115 1
119 112 118 1
120 112 119 1
121 120 121 1
122 120 129 1
123 121 122 1
124 121 124 1
125 121 130 1
126 122 123 2
127 122 135 1
128 124 125 1
129 125 126 1
130 126 127 2
131 126 128 1
132 124 131 1
133 124 132 1
134 125 133 1
135 125 134 1
136 135 136 1
137 135 145 1
138 136 137 1
139 136 139 1
140 136 146 1
141 137 138 2
142 137 152 1
143 139 140 1
144 140 141 2
145 141 144 1
146 140 142 1
147 142 143 2
148 143 144 1
149 139 147 1
150 139 148 1
151 141 149 1
152 143 150 1
153 144 151 1
154 152 153 1
155 152 159 1
156 153 154 1
157 153 156 1
158 153 160 1
159 154 155 2
160 154 168 1
161 156 157 1
162 156 158 1
163 156 161 1
164 157 162 1
165 157 163 1
166 157 164 1
167 158 165 1
168 158 166 1
169 158 167 1
170 168 169 1
171 168 177 1
172 169 170 1
173 169 172 1
174 169 178 1
175 170 171 2
176 170 185 1
177 172 173 1
178 173 174 1
179 174 175 1
180 174 176 2
181 172 179 1
182 172 180 1
183 173 181 1
184 173 182 1
185 175 183 1
186 175 184 1
187 185 186 1
188 185 196 1
189 186 187 1
190 186 189 1
191 186 197 1
192 187 188 2
193 187 209 1
194 189 190 1
195 190 191 1
196 191 192 1
197 192 193 1
198 193 194 2
199 193 195 1
200 189 198 1
201 189 199 1
202 190 200 1
203 190 201 1
204 191 202 1
205 191 203 1
206 192 204 1
207 194 205 1
208 194 206 1
209 195 207 1
210 195 208 1
211 209 210 1
212 209 216 1
213 210 211 1
214 210 213 1
215 210 217 1
216 211 212 2
217 211 225 1
218 213 214 1
219 213 215 1
220 213 218 1
221 214 219 1
222 214 220 1
223 214 221 1
224 215 222 1
225 215 223 1
226 215 224 1
227 225 226 1
228 225 233 1
229 226 227 1
230 226 229 1
231 226 234 1
232 227 228 2
233 227 242 1
234 229 230 1
235 230 231 1
236 231 232 1
237 229 235 1
238 229 236 1
239 230 237 1
240 230 238 1
241 232 239 1
242 232 240 1
243 232 241 1
244 242 243 1
245 242 253 1
246 243 244 1
247 243 246 1
248 243 254 1
249 244 245 2
250 246 247 1
251 247 248 1
252 248 249 1
253 249 250 1
254 250 251 2
255 250 252 1
256 246 255 1
257 246 256 1
258 247 257 1
259 247 258 1
260 248 259 1
261 248 260 1
262 249 261 1
263 251 262 1
264 251 263 1
265 252 264 1
266 252 265 1
@<TRIPOS>SUBSTRUCTURE
1	GLU1	1	RESIDUE	1 ****	GLU
2	THR2	16	RESIDUE	1 ****	THR
3	PRO3	30	RESIDUE	1 ****	PRO
4	GLU4	44	RESIDUE	1 ****	GLU
5	SER5	59	RESIDUE	1 ****	SER
6	ILE6	70	RESIDUE	1 ****	ILE
7	LEU7	89	RESIDUE	1 ****	LEU
8	ASP8	108	RESIDUE	1 ****	ASP
9	GLU9	120	RESIDUE	1 ****	GLU
10	HIS10	135	RESIDUE	1 ****	HIS
11	VAL11	152	RESIDUE	1 ****	VAL
12	GLN12	168	RESIDUE	1 ****	GLN
13	ARG13	185	RESIDUE	1 ****	ARG
14	VAL14	209	RESIDUE	1 ****	VAL
15	MET15	225	RESIDUE	1 ****	MET
16	ARG16	242	RESIDUE	1 ****	ARG
