REMARK WARNING: 32 MAX_TORS EXCEEDED!!!
REMARK  66 active torsions:
REMARK  status: ('A' for Active; 'I' for Inactive)
REMARK    1  A    between atoms: N_1  and  CA_2 
REMARK    2  A    between atoms: CA_2  and  C_3 
REMARK    3  A    between atoms: CA_2  and  CB_5 
REMARK       I    between atoms: C_3  and  N_11 
REMARK    4  A    between atoms: CB_5  and  CG_6 
REMARK    5  A    between atoms: CG_6  and  CD_7 
REMARK    6  A    between atoms: N_11  and  CA_12 
REMARK    7  A    between atoms: CA_12  and  C_13 
REMARK    8  A    between atoms: CA_12  and  CB_15 
REMARK       I    between atoms: C_13  and  N_22 
REMARK    9  A    between atoms: CB_15  and  CG_16 
REMARK       I    between atoms: CG_16  and  ND2_17 
REMARK   10  A    between atoms: CA_23  and  C_24 
REMARK       I    between atoms: C_24  and  N_29 
REMARK   11  A    between atoms: N_29  and  CA_30 
REMARK   12  A    between atoms: CA_30  and  C_31 
REMARK   13  A    between atoms: CA_30  and  CB_33 
REMARK       I    between atoms: C_31  and  N_39 
REMARK   14  A    between atoms: CB_33  and  CG_34 
REMARK   15  A    between atoms: CG_34  and  CD_35 
REMARK   16  A    between atoms: N_39  and  CA_40 
REMARK   17  A    between atoms: CA_40  and  C_41 
REMARK   18  A    between atoms: CA_40  and  CB_43 
REMARK       I    between atoms: C_41  and  N_47 
REMARK   19  A    between atoms: CB_43  and  OG_44 
REMARK   20  A    between atoms: N_47  and  CA_48 
REMARK   21  A    between atoms: CA_48  and  C_49 
REMARK   22  A    between atoms: CA_48  and  CB_51 
REMARK       I    between atoms: C_49  and  N_56 
REMARK   23  A    between atoms: CB_51  and  CG1_52 
REMARK   24  A    between atoms: N_56  and  CA_57 
REMARK   25  A    between atoms: CA_57  and  C_58 
REMARK   26  A    between atoms: CA_57  and  CB_60 
REMARK       I    between atoms: C_58  and  N_65 
REMARK   27  A    between atoms: CB_60  and  CG_61 
REMARK   28  A    between atoms: N_65  and  CA_66 
REMARK   29  A    between atoms: CA_66  and  C_67 
REMARK   30  A    between atoms: CA_66  and  CB_69 
REMARK       I    between atoms: C_67  and  N_74 
REMARK   31  A    between atoms: CB_69  and  CG_70 
REMARK   32  A    between atoms: N_74  and  CA_75 
REMARK   33  A    between atoms: CA_75  and  C_76 
REMARK   34  A    between atoms: CA_75  and  CB_78 
REMARK       I    between atoms: C_76  and  N_82 
REMARK   35  A    between atoms: N_82  and  CA_83 
REMARK   36  A    between atoms: CA_83  and  C_84 
REMARK   37  A    between atoms: CA_83  and  CB_86 
REMARK       I    between atoms: C_84  and  N_94 
REMARK   38  A    between atoms: CB_86  and  CG_87 
REMARK   39  A    between atoms: N_94  and  CA_95 
REMARK   40  A    between atoms: CA_95  and  C_96 
REMARK   41  A    between atoms: CA_95  and  CB_98 
REMARK       I    between atoms: C_96  and  N_102 
REMARK   42  A    between atoms: N_102  and  CA_103 
REMARK   43  A    between atoms: CA_103  and  C_104 
REMARK   44  A    between atoms: CA_103  and  CB_106 
REMARK       I    between atoms: C_104  and  N_114 
REMARK   45  A    between atoms: CB_106  and  CG_107 
REMARK   46  A    between atoms: CG_107  and  CD_108 
REMARK       I    between atoms: CD_108  and  NE2_109 
REMARK   47  A    between atoms: N_114  and  CA_115 
REMARK   48  A    between atoms: CA_115  and  C_116 
REMARK   49  A    between atoms: CA_115  and  CB_118 
REMARK       I    between atoms: C_116  and  N_131 
REMARK   50  A    between atoms: CB_118  and  CG_119 
REMARK   51  A    between atoms: CG_119  and  CD_120 
REMARK   52  A    between atoms: CD_120  and  NE_121 
REMARK       I    between atoms: NE_121  and  CZ_122 
REMARK       I    between atoms: CZ_122  and  NH1_123 
REMARK       I    between atoms: CZ_122  and  NH2_124 
REMARK   53  A    between atoms: N_131  and  CA_132 
REMARK   54  A    between atoms: CA_132  and  C_133 
REMARK   55  A    between atoms: CA_132  and  CB_135 
REMARK       I    between atoms: C_133  and  N_139 
REMARK   56  A    between atoms: N_139  and  CA_140 
REMARK   57  A    between atoms: CA_140  and  C_141 
REMARK   58  A    between atoms: CA_140  and  CB_143 
REMARK       I    between atoms: C_141  and  N_148 
REMARK   59  A    between atoms: CB_143  and  CG_144 
REMARK   60  A    between atoms: CG_144  and  SD_145 
REMARK   61  A    between atoms: N_148  and  CA_149 
REMARK   62  A    between atoms: CA_149  and  C_150 
REMARK   63  A    between atoms: CA_149  and  CB_152 
REMARK   64  A    between atoms: CB_152  and  CG_153 
REMARK   65  A    between atoms: CG_153  and  CD_154 
REMARK   66  A    between atoms: CD_154  and  NE_155 
REMARK       I    between atoms: NE_155  and  CZ_156 
REMARK       I    between atoms: CZ_156  and  NH1_157 
ROOT
ATOM      1  C   VAL d   9    1387.909 408.227-1395.084  0.00  0.00     0.241 C 
ATOM      2  O   VAL d   9    1388.572 408.980-1395.809  0.00  0.00    -0.271 OA
ATOM      3  N   HIS d  10    1388.005 406.952-1395.254  0.00  0.00    -0.346 N 
ATOM      4  H   HIS d  10    1387.474 406.317-1394.675  0.00  0.00     0.163 HD
ENDROOT
BRANCH   3   5
ATOM      5  CA  HIS d  10    1388.893 406.440-1396.294  0.00  0.00     0.182 C 
BRANCH   5   6
ATOM      6  C   HIS d  10    1388.526 407.005-1397.645  0.00  0.00     0.241 C 
ATOM      7  O   HIS d  10    1389.378 407.470-1398.417  0.00  0.00    -0.271 OA
ATOM      8  N   VAL d  11    1387.288 407.004-1398.008  0.00  0.00    -0.346 N 
ATOM      9  H   VAL d  11    1386.575 406.632-1397.397  0.00  0.00     0.163 HD
BRANCH   8  10
ATOM     10  CA  VAL d  11    1386.932 407.551-1399.315  0.00  0.00     0.180 C 
BRANCH  10  11
ATOM     11  C   VAL d  11    1387.397 408.981-1399.447  0.00  0.00     0.241 C 
ATOM     12  O   VAL d  11    1387.998 409.386-1400.451  0.00  0.00    -0.271 OA
ATOM     13  N   GLN d  12    1387.160 409.807-1398.485  0.00  0.00    -0.346 N 
ATOM     14  H   GLN d  12    1386.672 409.501-1397.656  0.00  0.00     0.163 HD
BRANCH  13  15
ATOM     15  CA  GLN d  12    1387.609 411.190-1398.612  0.00  0.00     0.177 C 
BRANCH  15  16
ATOM     16  C   GLN d  12    1389.099 411.257-1398.850  0.00  0.00     0.241 C 
ATOM     17  O   GLN d  12    1389.586 411.966-1399.729  0.00  0.00    -0.271 OA
ATOM     18  N   ARG d  13    1389.883 410.550-1398.110  0.00  0.00    -0.346 N 
ATOM     19  H   ARG d  13    1389.508 409.960-1397.381  0.00  0.00     0.163 HD
BRANCH  18  20
ATOM     20  CA  ARG d  13    1391.324 410.616-1398.341  0.00  0.00     0.176 C 
BRANCH  20  21
ATOM     21  C   ARG d  13    1391.659 410.245-1399.766  0.00  0.00     0.241 C 
ATOM     22  O   ARG d  13    1392.428 410.917-1400.450  0.00  0.00    -0.271 OA
ATOM     23  N   VAL d  14    1391.123 409.190-1400.280  0.00  0.00    -0.346 N 
ATOM     24  H   VAL d  14    1390.489 408.622-1399.738  0.00  0.00     0.163 HD
BRANCH  23  25
ATOM     25  CA  VAL d  14    1391.448 408.831-1401.658  0.00  0.00     0.180 C 
BRANCH  25  26
ATOM     26  C   VAL d  14    1391.117 409.961-1402.604  0.00  0.00     0.241 C 
ATOM     27  O   VAL d  14    1391.910 410.343-1403.473  0.00  0.00    -0.271 OA
ATOM     28  N   MET d  15    1389.972 410.547-1402.501  0.00  0.00    -0.346 N 
ATOM     29  H   MET d  15    1389.307 410.254-1401.800  0.00  0.00     0.163 HD
BRANCH  28  30
ATOM     30  CA  MET d  15    1389.652 411.640-1403.415  0.00  0.00     0.177 C 
BRANCH  30  31
ATOM     31  C   MET d  15    1390.682 412.740-1403.328  0.00  0.00     0.241 C 
ATOM     32  O   MET d  15    1391.185 413.250-1404.341  0.00  0.00    -0.271 OA
ATOM     33  N   ARG d  16    1391.051 413.161-1402.166  0.00  0.00    -0.347 N 
ATOM     34  H   ARG d  16    1390.656 412.761-1401.326  0.00  0.00     0.163 HD
BRANCH  33  35
ATOM     35  CA  ARG d  16    1392.048 414.225-1402.082  0.00  0.00     0.162 C 
BRANCH  35  36
ATOM     36  C   ARG d  16    1393.318 413.832-1402.799  0.00  0.00     0.219 C 
ATOM     37  O   ARG d  16    1393.432 412.755-1403.380  0.00  0.00    -0.287 OA
ENDBRANCH  35  36
BRANCH  35  38
ATOM     38  CB  ARG d  16    1392.317 414.543-1400.584  0.00  0.00     0.035 C 
BRANCH  38  39
ATOM     39  CG  ARG d  16    1393.142 415.832-1400.312  0.00  0.00     0.023 C 
BRANCH  39  40
ATOM     40  CD  ARG d  16    1393.392 416.052-1398.810  0.00  0.00     0.138 C 
BRANCH  40  41
ATOM     41  NE  ARG d  16    1394.169 417.311-1398.610  0.00  0.00    -0.227 N 
ATOM     42  CZ  ARG d  16    1394.560 417.793-1397.434  0.00  0.00     0.665 C 
ATOM     43  NH1 ARG d  16    1394.313 417.209-1396.296  0.00  0.00    -0.235 N 
ATOM     44  NH2 ARG d  16    1395.224 418.906-1397.416  0.00  0.00    -0.235 N 
ATOM     45 11HH ARG d  16    1393.787 416.336-1396.380  0.00  0.00     0.174 HD
ATOM     46 12HH ARG d  16    1394.647 417.645-1395.435  0.00  0.00     0.174 HD
ATOM     47 21HH ARG d  16    1395.410 419.348-1398.318  0.00  0.00     0.174 HD
ATOM     48 22HH ARG d  16    1395.515 419.261-1396.504  0.00  0.00     0.174 HD
ATOM     49  HE  ARG d  16    1394.447 417.891-1399.407  0.00  0.00     0.177 HD
ENDBRANCH  40  41
ENDBRANCH  39  40
ENDBRANCH  38  39
ENDBRANCH  35  38
ENDBRANCH  33  35
ENDBRANCH  30  31
BRANCH  30  50
ATOM     50  CB  MET d  15    1388.230 412.186-1403.106  0.00  0.00     0.045 C 
BRANCH  50  51
ATOM     51  CG  MET d  15    1387.068 411.188-1403.298  0.00  0.00     0.076 C 
BRANCH  51  52
ATOM     52  SD  MET d  15    1385.495 412.054-1403.183  0.00  0.00    -0.173 SA
ATOM     53  CE  MET d  15    1384.413 410.624-1403.047  0.00  0.00     0.089 C 
ENDBRANCH  51  52
ENDBRANCH  50  51
ENDBRANCH  30  50
ENDBRANCH  28  30
ENDBRANCH  25  26
BRANCH  25  54
ATOM     54  CB  VAL d  14    1390.675 407.514-1402.065  0.00  0.00     0.009 C 
ATOM     55  CG1 VAL d  14    1390.764 407.096-1403.559  0.00  0.00     0.012 C 
ATOM     56  CG2 VAL d  14    1391.107 406.262-1401.265  0.00  0.00     0.012 C 
ENDBRANCH  25  54
ENDBRANCH  23  25
ENDBRANCH  20  21
BRANCH  20  57
ATOM     57  CB  ARG d  13    1392.037 409.677-1397.327  0.00  0.00     0.036 C 
BRANCH  57  58
ATOM     58  CG  ARG d  13    1393.583 409.830-1397.247  0.00  0.00     0.023 C 
BRANCH  58  59
ATOM     59  CD  ARG d  13    1394.210 408.842-1396.249  0.00  0.00     0.138 C 
BRANCH  59  60
ATOM     60  NE  ARG d  13    1395.687 409.050-1396.199  0.00  0.00    -0.227 N 
ATOM     61  CZ  ARG d  13    1396.535 408.358-1395.445  0.00  0.00     0.665 C 
ATOM     62  NH1 ARG d  13    1396.171 407.393-1394.647  0.00  0.00    -0.235 N 
ATOM     63  NH2 ARG d  13    1397.795 408.657-1395.502  0.00  0.00    -0.235 N 
ATOM     64 11HH ARG d  13    1395.165 407.207-1394.650  0.00  0.00     0.174 HD
ATOM     65 12HH ARG d  13    1396.884 406.910-1394.099  0.00  0.00     0.174 HD
ATOM     66 21HH ARG d  13    1398.062 409.415-1396.133  0.00  0.00     0.174 HD
ATOM     67 22HH ARG d  13    1398.430 408.116-1394.914  0.00  0.00     0.174 HD
ATOM     68  HE  ARG d  13    1396.138 409.772-1396.770  0.00  0.00     0.177 HD
ENDBRANCH  59  60
ENDBRANCH  58  59
ENDBRANCH  57  58
ENDBRANCH  20  57
ENDBRANCH  18  20
ENDBRANCH  15  16
BRANCH  15  69
ATOM     69  CB  GLN d  12    1387.218 411.957-1397.329  0.00  0.00     0.044 C 
BRANCH  69  70
ATOM     70  CG  GLN d  12    1387.578 413.479-1397.298  0.00  0.00     0.105 C 
BRANCH  70  71
ATOM     71  CD  GLN d  12    1387.276 414.292-1396.033  0.00  0.00     0.215 C 
ATOM     72  NE2 GLN d  12    1386.710 413.716-1395.004  0.00  0.00    -0.370 N 
ATOM     73 21HE GLN d  12    1386.603 414.310-1394.181  0.00  0.00     0.159 HD
ATOM     74 22HE GLN d  12    1386.546 412.712-1395.108  0.00  0.00     0.159 HD
ATOM     75  OE1 GLN d  12    1387.578 415.473-1395.955  0.00  0.00    -0.274 OA
ENDBRANCH  70  71
ENDBRANCH  69  70
ENDBRANCH  15  69
ENDBRANCH  13  15
ENDBRANCH  10  11
BRANCH  10  76
ATOM     76  CB  VAL d  11    1385.371 407.444-1399.534  0.00  0.00     0.009 C 
ATOM     77  CG1 VAL d  11    1384.802 408.148-1400.797  0.00  0.00     0.012 C 
ATOM     78  CG2 VAL d  11    1384.846 405.990-1399.607  0.00  0.00     0.012 C 
ENDBRANCH  10  76
ENDBRANCH   8  10
ENDBRANCH   5   6
BRANCH   5  79
ATOM     79  CB  HIS d  10    1388.729 404.912-1396.289  0.00  0.00     0.095 C 
BRANCH  79  80
ATOM     80  CG  HIS d  10    1390.014 404.202-1395.981  0.00  0.00     0.053 A 
ATOM     81  CD2 HIS d  10    1390.395 403.866-1394.689  0.00  0.00     0.116 A 
ATOM     82  NE2 HIS d  10    1391.610 403.235-1394.756  0.00  0.00    -0.359 N 
ATOM     83  CE1 HIS d  10    1391.873 403.237-1396.091  0.00  0.00     0.207 A 
ATOM     84  2HE HIS d  10    1392.177 402.857-1393.983  0.00  0.00     0.166 HD
ATOM     85  ND1 HIS d  10    1390.966 403.796-1396.914  0.00  0.00    -0.247 NA
ENDBRANCH  79  80
ENDBRANCH   5  79
ENDBRANCH   3   5
BRANCH   1  86
ATOM     86  CA  VAL d   9    1386.990 408.755-1394.008  0.00  0.00     0.180 C 
BRANCH  86  87
ATOM     87  N   VAL d   9    1385.688 408.097-1394.063  0.00  0.00    -0.346 N 
ATOM     88  C   ASP d   8    1385.008 408.147-1395.159  0.00  0.00     0.241 C 
ATOM     89  O   ASP d   8    1385.481 408.753-1396.133  0.00  0.00    -0.271 OA
ATOM     90  H   VAL d   9    1385.325 407.611-1393.256  0.00  0.00     0.163 HD
BRANCH  88  91
ATOM     91  CA  ASP d   8    1383.661 407.467-1395.216  0.00  0.00     0.186 C 
BRANCH  91  92
ATOM     92  N   ASP d   8    1383.732 406.118-1394.663  0.00  0.00    -0.346 N 
ATOM     93  C   LEU d   7    1384.569 405.277-1395.170  0.00  0.00     0.241 C 
ATOM     94  O   LEU d   7    1385.290 405.640-1396.111  0.00  0.00    -0.271 OA
ATOM     95  H   ASP d   8    1383.134 405.846-1393.895  0.00  0.00     0.163 HD
BRANCH  93  96
ATOM     96  CA  LEU d   7    1384.642 403.882-1394.597  0.00  0.00     0.177 C 
BRANCH  96  97
ATOM     97  N   LEU d   7    1384.697 403.918-1393.139  0.00  0.00    -0.346 N 
ATOM     98  C   ILE d   6    1385.643 404.581-1392.565  0.00  0.00     0.241 C 
ATOM     99  O   ILE d   6    1386.477 405.169-1393.269  0.00  0.00    -0.271 OA
ATOM    100  H   LEU d   7    1384.005 403.430-1392.587  0.00  0.00     0.163 HD
BRANCH  98 101
ATOM    101  CA  ILE d   6    1385.700 404.619-1391.057  0.00  0.00     0.180 C 
BRANCH 101 102
ATOM    102  N   ILE d   6    1384.387 404.913-1390.491  0.00  0.00    -0.346 N 
ATOM    103  C   SER d   5    1383.782 405.996-1390.845  0.00  0.00     0.243 C 
ATOM    104  O   SER d   5    1384.329 406.750-1391.650  0.00  0.00    -0.271 OA
ATOM    105  H   ILE d   6    1383.959 404.279-1389.832  0.00  0.00     0.163 HD
BRANCH 103 106
ATOM    106  CA  SER d   5    1382.423 406.302-1390.259  0.00  0.00     0.200 C 
BRANCH 106 107
ATOM    107  N   SER d   5    1381.554 405.130-1390.318  0.00  0.00    -0.344 N 
ATOM    108  C   GLU d   4    1381.326 404.578-1391.461  0.00  0.00     0.241 C 
ATOM    109  O   GLU d   4    1381.853 405.057-1392.475  0.00  0.00    -0.271 OA
ATOM    110  H   SER d   5    1381.137 404.759-1389.476  0.00  0.00     0.163 HD
BRANCH 108 111
ATOM    111  CA  GLU d   4    1380.427 403.366-1391.522  0.00  0.00     0.177 C 
BRANCH 111 112
ATOM    112  N   GLU d   4    1380.787 402.395-1390.492  0.00  0.00    -0.346 N 
ATOM    113  C   PRO d   3    1381.992 401.935-1390.460  0.00  0.00     0.241 C 
ATOM    114  O   PRO d   3    1382.815 402.318-1391.292  0.00  0.00    -0.271 OA
ATOM    115  H   GLU d   4    1380.103 402.089-1389.816  0.00  0.00     0.163 HD
BRANCH 113 116
ATOM    116  CA  PRO d   3    1382.390 400.912-1389.383  0.00  0.00     0.179 C 
ATOM    117  N   PRO d   3    1381.939 401.321-1388.062  0.00  0.00    -0.337 N 
ATOM    118  C   ASN d   2    1382.460 402.316-1387.428  0.00  0.00     0.243 C 
ATOM    119  CD  PRO d   3    1380.861 400.528-1387.513  0.00  0.00     0.127 C 
ATOM    120  O   ASN d   2    1383.375 402.947-1387.956  0.00  0.00    -0.271 OA
ATOM    121  CG  PRO d   3    1380.403 399.709-1388.722  0.00  0.00     0.022 C 
ATOM    122  CB  PRO d   3    1381.686 399.557-1389.552  0.00  0.00     0.037 C 
BRANCH 118 123
ATOM    123  CA  ASN d   2    1381.929 402.672-1386.059  0.00  0.00     0.185 C 
BRANCH 123 124
ATOM    124  N   ASN d   2    1380.470 402.710-1386.059  0.00  0.00    -0.346 N 
ATOM    125  C   GLU d   1    1379.865 403.496-1386.884  0.00  0.00     0.242 C 
ATOM    126  O   GLU d   1    1380.541 404.195-1387.653  0.00  0.00    -0.271 OA
ATOM    127  H   ASN d   2    1379.941 402.131-1385.422  0.00  0.00     0.163 HD
BRANCH 125 128
ATOM    128  CA  GLU d   1    1378.356 403.536-1386.884  0.00  0.00     0.191 C 
BRANCH 128 129
ATOM    129  N   GLU d   1    1377.797 402.187-1386.884  0.00  0.00    -0.326 NA
ATOM    130  H   GLU d   1    1378.424 401.308-1386.884  0.00  0.00     0.180 HD
ENDBRANCH 128 129
BRANCH 128 131
ATOM    131  CB  GLU d   1    1377.833 404.321-1385.647  0.00  0.00     0.047 C 
BRANCH 131 132
ATOM    132  CG  GLU d   1    1378.308 405.806-1385.536  0.00  0.00     0.116 C 
BRANCH 132 133
ATOM    133  CD  GLU d   1    1377.884 406.610-1384.321  0.00  0.00     0.172 C 
ATOM    134  OE1 GLU d   1    1377.156 406.108-1383.443  0.00  0.00    -0.648 OA
ATOM    135  OE2 GLU d   1    1378.314 407.780-1384.249  0.00  0.00    -0.648 OA
ENDBRANCH 132 133
ENDBRANCH 131 132
ENDBRANCH 128 131
ENDBRANCH 125 128
ENDBRANCH 123 124
BRANCH 123 136
ATOM    136  CB  ASN d   2    1382.421 401.649-1384.995  0.00  0.00     0.137 C 
BRANCH 136 137
ATOM    137  CG  ASN d   2    1381.958 401.873-1383.551  0.00  0.00     0.217 C 
ATOM    138  ND2 ASN d   2    1382.552 402.788-1382.833  0.00  0.00    -0.370 N 
ATOM    139 21HD ASN d   2    1382.072 402.961-1381.947  0.00  0.00     0.159 HD
ATOM    140 22HD ASN d   2    1383.254 403.359-1383.302  0.00  0.00     0.159 HD
ATOM    141  OD1 ASN d   2    1381.037 401.239-1383.057  0.00  0.00    -0.274 OA
ENDBRANCH 136 137
ENDBRANCH 123 136
ENDBRANCH 118 123
ENDBRANCH 113 116
ENDBRANCH 111 112
BRANCH 111 142
ATOM    142  CB  GLU d   4    1378.939 403.785-1391.351  0.00  0.00     0.045 C 
BRANCH 142 143
ATOM    143  CG  GLU d   4    1378.391 404.789-1392.417  0.00  0.00     0.116 C 
BRANCH 143 144
ATOM    144  CD  GLU d   4    1376.964 405.285-1392.273  0.00  0.00     0.172 C 
ATOM    145  OE1 GLU d   4    1376.238 404.887-1391.342  0.00  0.00    -0.648 OA
ATOM    146  OE2 GLU d   4    1376.574 406.114-1393.121  0.00  0.00    -0.648 OA
ENDBRANCH 143 144
ENDBRANCH 142 143
ENDBRANCH 111 142
ENDBRANCH 108 111
ENDBRANCH 106 107
BRANCH 106 147
ATOM    147  CB  SER d   5    1382.535 406.834-1388.808  0.00  0.00     0.199 C 
BRANCH 147 148
ATOM    148  OG  SER d   5    1383.267 405.954-1387.948  0.00  0.00    -0.398 OA
ATOM    149  HG  SER d   5    1382.778 405.129-1387.897  0.00  0.00     0.209 HD
ENDBRANCH 147 148
ENDBRANCH 106 147
ENDBRANCH 103 106
ENDBRANCH 101 102
BRANCH 101 150
ATOM    150  CB  ILE d   6    1386.300 403.282-1390.458  0.00  0.00     0.013 C 
ATOM    151  CG2 ILE d   6    1387.741 402.981-1390.973  0.00  0.00     0.012 C 
BRANCH 150 152
ATOM    152  CG1 ILE d   6    1386.319 403.220-1388.897  0.00  0.00     0.002 C 
ATOM    153  CD1 ILE d   6    1386.589 401.831-1388.282  0.00  0.00     0.005 C 
ENDBRANCH 150 152
ENDBRANCH 101 150
ENDBRANCH  98 101
ENDBRANCH  96  97
BRANCH  96 154
ATOM    154  CB  LEU d   7    1383.439 403.022-1395.078  0.00  0.00     0.038 C 
BRANCH 154 155
ATOM    155  CG  LEU d   7    1383.366 401.542-1394.611  0.00  0.00    -0.020 C 
ATOM    156  CD1 LEU d   7    1382.176 400.836-1395.277  0.00  0.00     0.009 C 
ATOM    157  CD2 LEU d   7    1384.660 400.763-1394.903  0.00  0.00     0.009 C 
ENDBRANCH 154 155
ENDBRANCH  96 154
ENDBRANCH  93  96
ENDBRANCH  91  92
BRANCH  91 158
ATOM    158  CB  ASP d   8    1382.583 408.306-1394.474  0.00  0.00     0.147 C 
BRANCH 158 159
ATOM    159  CG  ASP d   8    1382.364 409.727-1395.014  0.00  0.00     0.175 C 
ATOM    160  OD1 ASP d   8    1382.428 409.926-1396.245  0.00  0.00    -0.648 OA
ATOM    161  OD2 ASP d   8    1382.172 410.653-1394.198  0.00  0.00    -0.648 OA
ENDBRANCH 158 159
ENDBRANCH  91 158
ENDBRANCH  88  91
ENDBRANCH  86  87
BRANCH  86 162
ATOM    162  CB  VAL d   9    1387.630 408.558-1392.577  0.00  0.00     0.009 C 
ATOM    163  CG1 VAL d   9    1389.098 409.037-1392.406  0.00  0.00     0.012 C 
ATOM    164  CG2 VAL d   9    1386.841 409.246-1391.437  0.00  0.00     0.012 C 
ENDBRANCH  86 162
ENDBRANCH   1  86
TORSDOF 66
