REMARK WARNING: 32 MAX_TORS EXCEEDED!!!
REMARK  64 active torsions:
REMARK  status: ('A' for Active; 'I' for Inactive)
REMARK    1  A    between atoms: N_1  and  CA_2 
REMARK    2  A    between atoms: CA_2  and  C_3 
REMARK    3  A    between atoms: CA_2  and  CB_5 
REMARK       I    between atoms: C_3  and  N_11 
REMARK    4  A    between atoms: CB_5  and  CG_6 
REMARK    5  A    between atoms: CG_6  and  CD_7 
REMARK    6  A    between atoms: N_11  and  CA_12 
REMARK    7  A    between atoms: CA_12  and  C_13 
REMARK    8  A    between atoms: CA_12  and  CB_15 
REMARK       I    between atoms: C_13  and  N_22 
REMARK    9  A    between atoms: CB_15  and  CG_16 
REMARK       I    between atoms: CG_16  and  ND2_17 
REMARK   10  A    between atoms: CA_23  and  C_24 
REMARK       I    between atoms: C_24  and  N_29 
REMARK   11  A    between atoms: N_29  and  CA_30 
REMARK   12  A    between atoms: CA_30  and  C_31 
REMARK   13  A    between atoms: CA_30  and  CB_33 
REMARK       I    between atoms: C_31  and  N_39 
REMARK   14  A    between atoms: CB_33  and  CG_34 
REMARK   15  A    between atoms: CG_34  and  CD_35 
REMARK   16  A    between atoms: N_39  and  CA_40 
REMARK   17  A    between atoms: CA_40  and  C_41 
REMARK   18  A    between atoms: CA_40  and  CB_43 
REMARK       I    between atoms: C_41  and  N_47 
REMARK   19  A    between atoms: CB_43  and  OG_44 
REMARK   20  A    between atoms: N_47  and  CA_48 
REMARK   21  A    between atoms: CA_48  and  C_49 
REMARK   22  A    between atoms: CA_48  and  CB_51 
REMARK       I    between atoms: C_49  and  N_56 
REMARK   23  A    between atoms: CB_51  and  CG1_52 
REMARK   24  A    between atoms: N_56  and  CA_57 
REMARK   25  A    between atoms: CA_57  and  C_58 
REMARK   26  A    between atoms: CA_57  and  CB_60 
REMARK       I    between atoms: C_58  and  N_65 
REMARK   27  A    between atoms: CB_60  and  CG_61 
REMARK   28  A    between atoms: N_65  and  CA_66 
REMARK   29  A    between atoms: CA_66  and  C_67 
REMARK   30  A    between atoms: CA_66  and  CB_69 
REMARK       I    between atoms: C_67  and  N_74 
REMARK   31  A    between atoms: CB_69  and  CG_70 
REMARK   32  A    between atoms: N_74  and  CA_75 
REMARK   33  A    between atoms: CA_75  and  C_76 
REMARK   34  A    between atoms: CA_75  and  CB_78 
REMARK       I    between atoms: C_76  and  N_84 
REMARK   35  A    between atoms: CB_78  and  CG_79 
REMARK   36  A    between atoms: CG_79  and  CD_80 
REMARK   37  A    between atoms: N_84  and  CA_85 
REMARK   38  A    between atoms: CA_85  and  C_86 
REMARK   39  A    between atoms: CA_85  and  CB_88 
REMARK       I    between atoms: C_86  and  N_96 
REMARK   40  A    between atoms: CB_88  and  CG_89 
REMARK   41  A    between atoms: N_96  and  CA_97 
REMARK   42  A    between atoms: CA_97  and  C_98 
REMARK   43  A    between atoms: CA_97  and  CB_100 
REMARK       I    between atoms: C_98  and  N_104 
REMARK   44  A    between atoms: CA_105  and  C_106 
REMARK       I    between atoms: C_106  and  N_111 
REMARK   45  A    between atoms: N_111  and  CA_112 
REMARK   46  A    between atoms: CA_112  and  C_113 
REMARK   47  A    between atoms: CA_112  and  CB_115 
REMARK       I    between atoms: C_113  and  N_128 
REMARK   48  A    between atoms: CB_115  and  CG_116 
REMARK   49  A    between atoms: CG_116  and  CD_117 
REMARK   50  A    between atoms: CD_117  and  NE_118 
REMARK       I    between atoms: NE_118  and  CZ_119 
REMARK       I    between atoms: CZ_119  and  NH1_120 
REMARK       I    between atoms: CZ_119  and  NH2_121 
REMARK   51  A    between atoms: N_128  and  CA_129 
REMARK   52  A    between atoms: CA_129  and  C_130 
REMARK   53  A    between atoms: CA_129  and  CB_132 
REMARK       I    between atoms: C_130  and  N_136 
REMARK   54  A    between atoms: N_136  and  CA_137 
REMARK   55  A    between atoms: CA_137  and  C_138 
REMARK   56  A    between atoms: CA_137  and  CB_140 
REMARK       I    between atoms: C_138  and  N_145 
REMARK   57  A    between atoms: CB_140  and  CG_141 
REMARK   58  A    between atoms: CG_141  and  SD_142 
REMARK   59  A    between atoms: N_145  and  CA_146 
REMARK   60  A    between atoms: CA_146  and  C_147 
REMARK   61  A    between atoms: CA_146  and  CB_149 
REMARK   62  A    between atoms: CB_149  and  CG_150 
REMARK   63  A    between atoms: CG_150  and  CD_151 
REMARK   64  A    between atoms: CD_151  and  NE_152 
REMARK       I    between atoms: NE_152  and  CZ_153 
REMARK       I    between atoms: CZ_153  and  NH1_154 
ROOT
ATOM      1  CA  GLU d   9    1863.034 564.117-1909.825  0.00  0.00     0.177 C 
ENDROOT
BRANCH   1   2
ATOM      2  N   GLU d   9    1861.732 563.459-1909.880  0.00  0.00    -0.346 N 
ATOM      3  C   ASP d   8    1861.052 563.509-1910.976  0.00  0.00     0.241 C 
ATOM      4  O   ASP d   8    1861.524 564.115-1911.950  0.00  0.00    -0.271 OA
ATOM      5  H   GLU d   9    1861.368 562.973-1909.073  0.00  0.00     0.163 HD
BRANCH   3   6
ATOM      6  CA  ASP d   8    1859.705 562.829-1911.033  0.00  0.00     0.186 C 
BRANCH   6   7
ATOM      7  N   ASP d   8    1859.776 561.480-1910.480  0.00  0.00    -0.346 N 
ATOM      8  C   LEU d   7    1860.613 560.639-1910.986  0.00  0.00     0.241 C 
ATOM      9  O   LEU d   7    1861.334 561.002-1911.928  0.00  0.00    -0.271 OA
ATOM     10  H   ASP d   8    1859.178 561.208-1909.713  0.00  0.00     0.163 HD
BRANCH   8  11
ATOM     11  CA  LEU d   7    1860.686 559.244-1910.414  0.00  0.00     0.177 C 
BRANCH  11  12
ATOM     12  N   LEU d   7    1860.741 559.280-1908.955  0.00  0.00    -0.346 N 
ATOM     13  C   ILE d   6    1861.687 559.944-1908.381  0.00  0.00     0.241 C 
ATOM     14  O   ILE d   6    1862.521 560.532-1909.085  0.00  0.00    -0.271 OA
ATOM     15  H   LEU d   7    1860.049 558.793-1908.404  0.00  0.00     0.163 HD
BRANCH  13  16
ATOM     16  CA  ILE d   6    1861.744 559.981-1906.874  0.00  0.00     0.180 C 
BRANCH  16  17
ATOM     17  N   ILE d   6    1860.431 560.276-1906.307  0.00  0.00    -0.346 N 
ATOM     18  C   SER d   5    1859.826 561.359-1906.662  0.00  0.00     0.243 C 
ATOM     19  O   SER d   5    1860.373 562.112-1907.467  0.00  0.00    -0.271 OA
ATOM     20  H   ILE d   6    1860.002 559.642-1905.648  0.00  0.00     0.163 HD
BRANCH  18  21
ATOM     21  CA  SER d   5    1858.467 561.664-1906.076  0.00  0.00     0.200 C 
BRANCH  21  22
ATOM     22  N   SER d   5    1857.597 560.493-1906.135  0.00  0.00    -0.344 N 
ATOM     23  C   GLU d   4    1857.370 559.940-1907.278  0.00  0.00     0.241 C 
ATOM     24  O   GLU d   4    1857.896 560.420-1908.292  0.00  0.00    -0.271 OA
ATOM     25  H   SER d   5    1857.180 560.122-1905.293  0.00  0.00     0.163 HD
BRANCH  23  26
ATOM     26  CA  GLU d   4    1856.471 558.729-1907.339  0.00  0.00     0.177 C 
BRANCH  26  27
ATOM     27  N   GLU d   4    1856.831 557.758-1906.309  0.00  0.00    -0.346 N 
ATOM     28  C   PRO d   3    1858.035 557.298-1906.277  0.00  0.00     0.241 C 
ATOM     29  O   PRO d   3    1858.859 557.681-1907.109  0.00  0.00    -0.271 OA
ATOM     30  H   GLU d   4    1856.146 557.452-1905.633  0.00  0.00     0.163 HD
BRANCH  28  31
ATOM     31  CA  PRO d   3    1858.433 556.275-1905.200  0.00  0.00     0.179 C 
ATOM     32  N   PRO d   3    1857.982 556.684-1903.879  0.00  0.00    -0.337 N 
ATOM     33  C   ASN d   2    1858.503 557.679-1903.245  0.00  0.00     0.243 C 
ATOM     34  CD  PRO d   3    1856.904 555.891-1903.329  0.00  0.00     0.127 C 
ATOM     35  O   ASN d   2    1859.418 558.310-1903.773  0.00  0.00    -0.271 OA
ATOM     36  CG  PRO d   3    1856.446 555.072-1904.539  0.00  0.00     0.022 C 
ATOM     37  CB  PRO d   3    1857.729 554.920-1905.369  0.00  0.00     0.037 C 
BRANCH  33  38
ATOM     38  CA  ASN d   2    1857.972 558.035-1901.876  0.00  0.00     0.185 C 
BRANCH  38  39
ATOM     39  N   ASN d   2    1856.513 558.073-1901.876  0.00  0.00    -0.346 N 
ATOM     40  C   GLU d   1    1855.908 558.859-1902.701  0.00  0.00     0.242 C 
ATOM     41  O   GLU d   1    1856.584 559.558-1903.470  0.00  0.00    -0.271 OA
ATOM     42  H   ASN d   2    1855.985 557.494-1901.239  0.00  0.00     0.163 HD
BRANCH  40  43
ATOM     43  CA  GLU d   1    1854.399 558.899-1902.701  0.00  0.00     0.191 C 
BRANCH  43  44
ATOM     44  N   GLU d   1    1853.840 557.550-1902.701  0.00  0.00    -0.326 NA
ATOM     45  H   GLU d   1    1854.467 556.671-1902.701  0.00  0.00     0.180 HD
ENDBRANCH  43  44
BRANCH  43  46
ATOM     46  CB  GLU d   1    1853.876 559.684-1901.464  0.00  0.00     0.047 C 
BRANCH  46  47
ATOM     47  CG  GLU d   1    1854.351 561.169-1901.353  0.00  0.00     0.116 C 
BRANCH  47  48
ATOM     48  CD  GLU d   1    1853.927 561.973-1900.138  0.00  0.00     0.172 C 
ATOM     49  OE1 GLU d   1    1853.199 561.471-1899.260  0.00  0.00    -0.648 OA
ATOM     50  OE2 GLU d   1    1854.357 563.143-1900.066  0.00  0.00    -0.648 OA
ENDBRANCH  47  48
ENDBRANCH  46  47
ENDBRANCH  43  46
ENDBRANCH  40  43
ENDBRANCH  38  39
BRANCH  38  51
ATOM     51  CB  ASN d   2    1858.464 557.012-1900.812  0.00  0.00     0.137 C 
BRANCH  51  52
ATOM     52  CG  ASN d   2    1858.001 557.236-1899.368  0.00  0.00     0.217 C 
ATOM     53  ND2 ASN d   2    1858.595 558.151-1898.650  0.00  0.00    -0.370 N 
ATOM     54 21HD ASN d   2    1858.115 558.324-1897.763  0.00  0.00     0.159 HD
ATOM     55 22HD ASN d   2    1859.297 558.722-1899.119  0.00  0.00     0.159 HD
ATOM     56  OD1 ASN d   2    1857.080 556.602-1898.874  0.00  0.00    -0.274 OA
ENDBRANCH  51  52
ENDBRANCH  38  51
ENDBRANCH  33  38
ENDBRANCH  28  31
ENDBRANCH  26  27
BRANCH  26  57
ATOM     57  CB  GLU d   4    1854.983 559.148-1907.169  0.00  0.00     0.045 C 
BRANCH  57  58
ATOM     58  CG  GLU d   4    1854.435 560.152-1908.234  0.00  0.00     0.116 C 
BRANCH  58  59
ATOM     59  CD  GLU d   4    1853.008 560.649-1908.091  0.00  0.00     0.172 C 
ATOM     60  OE1 GLU d   4    1852.282 560.250-1907.160  0.00  0.00    -0.648 OA
ATOM     61  OE2 GLU d   4    1852.618 561.478-1908.939  0.00  0.00    -0.648 OA
ENDBRANCH  58  59
ENDBRANCH  57  58
ENDBRANCH  26  57
ENDBRANCH  23  26
ENDBRANCH  21  22
BRANCH  21  62
ATOM     62  CB  SER d   5    1858.578 562.197-1904.626  0.00  0.00     0.199 C 
BRANCH  62  63
ATOM     63  OG  SER d   5    1859.310 561.318-1903.765  0.00  0.00    -0.398 OA
ATOM     64  HG  SER d   5    1858.822 560.493-1903.714  0.00  0.00     0.209 HD
ENDBRANCH  62  63
ENDBRANCH  21  62
ENDBRANCH  18  21
ENDBRANCH  16  17
BRANCH  16  65
ATOM     65  CB  ILE d   6    1862.344 558.645-1906.274  0.00  0.00     0.013 C 
ATOM     66  CG2 ILE d   6    1863.785 558.343-1906.789  0.00  0.00     0.012 C 
BRANCH  65  67
ATOM     67  CG1 ILE d   6    1862.363 558.583-1904.713  0.00  0.00     0.002 C 
ATOM     68  CD1 ILE d   6    1862.633 557.194-1904.098  0.00  0.00     0.005 C 
ENDBRANCH  65  67
ENDBRANCH  16  65
ENDBRANCH  13  16
ENDBRANCH  11  12
BRANCH  11  69
ATOM     69  CB  LEU d   7    1859.483 558.383-1910.894  0.00  0.00     0.038 C 
BRANCH  69  70
ATOM     70  CG  LEU d   7    1859.410 556.904-1910.428  0.00  0.00    -0.020 C 
ATOM     71  CD1 LEU d   7    1858.221 556.198-1911.093  0.00  0.00     0.009 C 
ATOM     72  CD2 LEU d   7    1860.704 556.125-1910.719  0.00  0.00     0.009 C 
ENDBRANCH  69  70
ENDBRANCH  11  69
ENDBRANCH   8  11
ENDBRANCH   6   7
BRANCH   6  73
ATOM     73  CB  ASP d   8    1858.627 563.668-1910.291  0.00  0.00     0.147 C 
BRANCH  73  74
ATOM     74  CG  ASP d   8    1858.408 565.089-1910.832  0.00  0.00     0.175 C 
ATOM     75  OD1 ASP d   8    1858.472 565.288-1912.062  0.00  0.00    -0.648 OA
ATOM     76  OD2 ASP d   8    1858.215 566.014-1910.016  0.00  0.00    -0.648 OA
ENDBRANCH  73  74
ENDBRANCH   6  73
ENDBRANCH   3   6
ENDBRANCH   1   2
BRANCH   1  77
ATOM     77  C   GLU d   9    1863.952 563.590-1910.901  0.00  0.00     0.241 C 
ATOM     78  O   GLU d   9    1864.616 564.345-1911.627  0.00  0.00    -0.271 OA
ATOM     79  N   HIS d  10    1864.049 562.315-1911.071  0.00  0.00    -0.346 N 
ATOM     80  H   HIS d  10    1863.519 561.679-1910.493  0.00  0.00     0.163 HD
BRANCH  79  81
ATOM     81  CA  HIS d  10    1864.937 561.805-1912.112  0.00  0.00     0.182 C 
BRANCH  81  82
ATOM     82  C   HIS d  10    1864.570 562.369-1913.463  0.00  0.00     0.241 C 
ATOM     83  O   HIS d  10    1865.422 562.835-1914.234  0.00  0.00    -0.271 OA
ATOM     84  N   VAL d  11    1863.332 562.368-1913.825  0.00  0.00    -0.346 N 
ATOM     85  H   VAL d  11    1862.619 561.994-1913.215  0.00  0.00     0.163 HD
BRANCH  84  86
ATOM     86  CA  VAL d  11    1862.976 562.914-1915.132  0.00  0.00     0.180 C 
BRANCH  86  87
ATOM     87  C   VAL d  11    1863.440 564.345-1915.264  0.00  0.00     0.243 C 
ATOM     88  O   VAL d  11    1864.040 564.750-1916.267  0.00  0.00    -0.271 OA
ATOM     89  N   PRO d  12    1863.202 565.170-1914.302  0.00  0.00    -0.337 N 
ATOM     90  CA  PRO d  12    1863.614 566.565-1914.348  0.00  0.00     0.179 C 
ATOM     91  CD  PRO d  12    1862.507 564.779-1913.095  0.00  0.00     0.127 C 
ATOM     92  CB  PRO d  12    1862.859 567.157-1913.148  0.00  0.00     0.037 C 
ATOM     93  CG  PRO d  12    1862.745 565.977-1912.172  0.00  0.00     0.022 C 
BRANCH  90  94
ATOM     94  C   PRO d  12    1865.141 566.710-1914.228  0.00  0.00     0.241 C 
ATOM     95  O   PRO d  12    1865.760 567.443-1914.999  0.00  0.00    -0.271 OA
ATOM     96  N   ARG d  13    1865.776 566.058-1913.314  0.00  0.00    -0.346 N 
ATOM     97  H   ARG d  13    1865.279 565.454-1912.676  0.00  0.00     0.163 HD
BRANCH  96  98
ATOM     98  CA  ARG d  13    1867.225 566.208-1913.216  0.00  0.00     0.176 C 
BRANCH  98  99
ATOM     99  C   ARG d  13    1867.895 565.845-1914.520  0.00  0.00     0.241 C 
ATOM    100  O   ARG d  13    1868.759 566.555-1915.028  0.00  0.00    -0.271 OA
ATOM    101  N   VAL d  14    1867.550 564.755-1915.118  0.00  0.00    -0.346 N 
ATOM    102  H   VAL d  14    1866.842 564.154-1914.720  0.00  0.00     0.163 HD
BRANCH 101 103
ATOM    103  CA  VAL d  14    1868.197 564.404-1916.378  0.00  0.00     0.180 C 
BRANCH 103 104
ATOM    104  C   VAL d  14    1868.026 565.503-1917.399  0.00  0.00     0.241 C 
ATOM    105  O   VAL d  14    1868.973 565.923-1918.076  0.00  0.00    -0.271 OA
ATOM    106  N   MET d  15    1866.857 566.020-1917.571  0.00  0.00    -0.346 N 
ATOM    107  H   MET d  15    1866.068 565.694-1917.030  0.00  0.00     0.163 HD
BRANCH 106 108
ATOM    108  CA  MET d  15    1866.690 567.083-1918.557  0.00  0.00     0.177 C 
BRANCH 108 109
ATOM    109  C   MET d  15    1867.610 568.243-1918.265  0.00  0.00     0.241 C 
ATOM    110  O   MET d  15    1868.299 568.774-1919.150  0.00  0.00    -0.271 OA
ATOM    111  N   ARG d  16    1867.682 568.696-1917.059  0.00  0.00    -0.347 N 
ATOM    112  H   ARG d  16    1867.131 568.281-1916.322  0.00  0.00     0.163 HD
BRANCH 111 113
ATOM    113  CA  ARG d  16    1868.572 569.819-1916.777  0.00  0.00     0.162 C 
BRANCH 113 114
ATOM    114  C   ARG d  16    1869.992 569.497-1917.180  0.00  0.00     0.219 C 
ATOM    115  O   ARG d  16    1870.295 568.424-1917.697  0.00  0.00    -0.287 OA
ENDBRANCH 113 114
BRANCH 113 116
ATOM    116  CB  ARG d  16    1868.477 570.166-1915.264  0.00  0.00     0.035 C 
BRANCH 116 117
ATOM    117  CG  ARG d  16    1869.145 571.505-1914.842  0.00  0.00     0.023 C 
BRANCH 117 118
ATOM    118  CD  ARG d  16    1869.036 571.752-1913.328  0.00  0.00     0.138 C 
BRANCH 118 119
ATOM    119  NE  ARG d  16    1869.675 573.057-1912.986  0.00  0.00    -0.227 N 
ATOM    120  CZ  ARG d  16    1869.762 573.573-1911.763  0.00  0.00     0.665 C 
ATOM    121  NH1 ARG d  16    1869.297 572.985-1910.697  0.00  0.00    -0.235 N 
ATOM    122  NH2 ARG d  16    1870.341 574.723-1911.621  0.00  0.00    -0.235 N 
ATOM    123 11HH ARG d  16    1868.854 572.081-1910.878  0.00  0.00     0.174 HD
ATOM    124 12HH ARG d  16    1869.403 573.448-1909.793  0.00  0.00     0.174 HD
ATOM    125 21HH ARG d  16    1870.700 575.169-1912.467  0.00  0.00     0.174 HD
ATOM    126 22HH ARG d  16    1870.397 575.104-1910.674  0.00  0.00     0.174 HD
ATOM    127  HE  ARG d  16    1870.093 573.647-1913.712  0.00  0.00     0.177 HD
ENDBRANCH 118 119
ENDBRANCH 117 118
ENDBRANCH 116 117
ENDBRANCH 113 116
ENDBRANCH 111 113
ENDBRANCH 108 109
BRANCH 108 128
ATOM    128  CB  MET d  15    1865.207 567.545-1918.589  0.00  0.00     0.045 C 
BRANCH 128 129
ATOM    129  CG  MET d  15    1864.177 566.477-1919.015  0.00  0.00     0.076 C 
BRANCH 129 130
ATOM    130  SD  MET d  15    1862.572 567.248-1919.277  0.00  0.00    -0.173 SA
ATOM    131  CE  MET d  15    1861.570 565.757-1919.355  0.00  0.00     0.089 C 
ENDBRANCH 129 130
ENDBRANCH 128 129
ENDBRANCH 108 128
ENDBRANCH 106 108
ENDBRANCH 103 104
BRANCH 103 132
ATOM    132  CB  VAL d  14    1867.613 563.039-1916.919  0.00  0.00     0.009 C 
ATOM    133  CG1 VAL d  14    1868.061 562.613-1918.344  0.00  0.00     0.012 C 
ATOM    134  CG2 VAL d  14    1867.922 561.822-1916.014  0.00  0.00     0.012 C 
ENDBRANCH 103 132
ENDBRANCH 101 103
ENDBRANCH  98  99
BRANCH  98 135
ATOM    135  CB  ARG d  13    1867.742 565.323-1912.046  0.00  0.00     0.036 C 
BRANCH 135 136
ATOM    136  CG  ARG d  13    1869.218 565.569-1911.623  0.00  0.00     0.023 C 
BRANCH 136 137
ATOM    137  CD  ARG d  13    1869.657 564.630-1910.488  0.00  0.00     0.138 C 
BRANCH 137 138
ATOM    138  NE  ARG d  13    1871.071 564.926-1910.110  0.00  0.00    -0.227 N 
ATOM    139  CZ  ARG d  13    1871.764 564.294-1909.168  0.00  0.00     0.665 C 
ATOM    140  NH1 ARG d  13    1871.282 563.316-1908.452  0.00  0.00    -0.235 N 
ATOM    141  NH2 ARG d  13    1872.984 564.667-1908.947  0.00  0.00    -0.235 N 
ATOM    142 11HH ARG d  13    1870.316 563.070-1908.677  0.00  0.00     0.174 HD
ATOM    143 12HH ARG d  13    1871.879 562.882-1907.746  0.00  0.00     0.174 HD
ATOM    144 21HH ARG d  13    1873.344 565.434-1909.518  0.00  0.00     0.174 HD
ATOM    145 22HH ARG d  13    1873.499 564.170-1908.218  0.00  0.00     0.174 HD
ATOM    146  HE  ARG d  13    1871.598 565.669-1910.581  0.00  0.00     0.177 HD
ENDBRANCH 137 138
ENDBRANCH 136 137
ENDBRANCH 135 136
ENDBRANCH  98 135
ENDBRANCH  96  98
ENDBRANCH  90  94
ENDBRANCH  86  87
BRANCH  86 147
ATOM    147  CB  VAL d  11    1861.415 562.807-1915.351  0.00  0.00     0.009 C 
ATOM    148  CG1 VAL d  11    1860.846 563.510-1916.614  0.00  0.00     0.012 C 
ATOM    149  CG2 VAL d  11    1860.891 561.352-1915.425  0.00  0.00     0.012 C 
ENDBRANCH  86 147
ENDBRANCH  84  86
ENDBRANCH  81  82
BRANCH  81 150
ATOM    150  CB  HIS d  10    1864.774 560.276-1912.107  0.00  0.00     0.095 C 
BRANCH 150 151
ATOM    151  CG  HIS d  10    1866.060 559.566-1911.799  0.00  0.00     0.053 A 
ATOM    152  CD2 HIS d  10    1866.441 559.230-1910.507  0.00  0.00     0.116 A 
ATOM    153  NE2 HIS d  10    1867.657 558.599-1910.574  0.00  0.00    -0.359 N 
ATOM    154  CE1 HIS d  10    1867.919 558.603-1911.909  0.00  0.00     0.207 A 
ATOM    155  2HE HIS d  10    1868.224 558.222-1909.801  0.00  0.00     0.166 HD
ATOM    156  ND1 HIS d  10    1867.012 559.161-1912.732  0.00  0.00    -0.247 NA
ENDBRANCH 150 151
ENDBRANCH  81 150
ENDBRANCH  79  81
ENDBRANCH   1  77
BRANCH   1 157
ATOM    157  CB  GLU d   9    1863.668 563.910-1908.420  0.00  0.00     0.045 C 
BRANCH 157 158
ATOM    158  CG  GLU d   9    1865.050 564.603-1908.191  0.00  0.00     0.116 C 
BRANCH 158 159
ATOM    159  CD  GLU d   9    1865.752 564.390-1906.863  0.00  0.00     0.172 C 
ATOM    160  OE1 GLU d   9    1865.231 563.698-1905.966  0.00  0.00    -0.648 OA
ATOM    161  OE2 GLU d   9    1866.871 564.928-1906.731  0.00  0.00    -0.648 OA
ENDBRANCH 158 159
ENDBRANCH 157 158
ENDBRANCH   1 157
TORSDOF 64
