@<TRIPOS>MOLECULE
7-18
261 262 16              
SMALL
USER_CHARGES
@<TRIPOS>ATOM
1	   N	1165.469	332.331	-1156.129	N.3	1	GLU1	-0.516	
2	  CA	1166.028	333.680	-1156.129	C.3	1	GLU1	0.040	
3	   C	1167.537	333.639	-1156.129	C.2	1	GLU1	0.537	
4	   O	1168.213	334.339	-1156.897	O.2	1	GLU1	-0.582	
5	  CB	1165.505	334.464	-1154.891	C.3	1	GLU1	0.056	
6	  CG	1165.980	335.949	-1154.781	C.3	1	GLU1	0.014	
7	  CD	1165.556	336.753	-1153.565	C.2	1	GLU1	0.805	
8	 OE1	1164.828	336.251	-1152.688	O.co2	1	GLU1	-0.819	
9	 OE2	1165.986	337.923	-1153.494	O.co2	1	GLU1	-0.819	
10	   H	1166.096	331.451	-1156.129	 H	1	GLU1	0.294	
11	  HA	1165.702	334.197	-1157.048	 H	1	GLU1	0.111	
12	 2HB	1165.794	333.934	-1153.962	 H	1	GLU1	-0.017	
13	 3HB	1164.398	334.454	-1154.879	 H	1	GLU1	-0.017	
14	 2HG	1165.670	336.534	-1155.661	 H	1	GLU1	-0.043	
15	 3HG	1167.080	336.016	-1154.751	 H	1	GLU1	-0.043	
16	   N	1168.142	332.854	-1155.303	N.am	2	ASN2	-0.416	
17	  CA	1169.601	332.815	-1155.303	C.3	2	ASN2	0.014	
18	   C	1170.132	332.460	-1156.672	C.2	2	ASN2	0.597	
19	   O	1171.047	333.090	-1157.201	O.2	2	ASN2	-0.568	
20	  CB	1170.093	331.792	-1154.239	C.3	2	ASN2	-0.204	
21	  CG	1169.630	332.016	-1152.796	C.2	2	ASN2	0.713	
22	 ND2	1170.224	332.931	-1152.078	N.pl3	2	ASN2	-0.919	
23	 OD1	1168.710	331.382	-1152.302	O.2	2	ASN2	-0.593	
24	   H	1167.614	332.274	-1154.667	 H	2	ASN2	0.272	
25	  HA	1169.979	333.825	-1155.058	 H	2	ASN2	0.105	
26	 2HB	1171.198	331.733	-1154.243	 H	2	ASN2	0.080	
27	 3HB	1169.764	330.774	-1154.525	 H	2	ASN2	0.080	
28	1HD2	1169.744	333.104	-1151.191	 H	2	ASN2	0.420	
29	2HD2	1170.926	333.503	-1152.547	 H	2	ASN2	0.420	
30	   N	1169.611	331.464	-1157.306	N.am	3	PRO3	-0.255	
31	  CA	1170.063	331.055	-1158.628	C.3	3	PRO3	-0.027	
32	   C	1169.664	332.079	-1159.705	C.2	3	PRO3	0.590	
33	   O	1170.488	332.462	-1160.536	O.2	3	PRO3	-0.575	
34	  CB	1169.359	329.700	-1158.797	C.3	3	PRO3	-0.007	
35	  CG	1168.075	329.853	-1157.967	C.3	3	PRO3	0.019	
36	  CD	1168.533	330.671	-1156.757	C.3	3	PRO3	0.019	
37	  HA	1171.149	330.935	-1158.641	 H	3	PRO3	0.064	
38	 2HB	1169.981	328.919	-1158.356	 H	3	PRO3	0.025	
39	 3HB	1169.160	329.452	-1159.842	 H	3	PRO3	0.025	
40	 2HG	1167.648	328.890	-1157.676	 H	3	PRO3	0.021	
41	 3HG	1167.338	330.423	-1158.534	 H	3	PRO3	0.021	
42	 2HD	1168.922	330.022	-1155.969	 H	3	PRO3	0.039	
43	 3HD	1167.736	331.307	-1156.364	 H	3	PRO3	0.039	
44	   N	1168.460	332.539	-1159.737	N.am	4	GLU4	-0.516	
45	  CA	1168.100	333.510	-1160.766	C.3	4	GLU4	0.040	
46	   C	1168.999	334.721	-1160.705	C.2	4	GLU4	0.537	
47	   O	1169.525	335.201	-1161.720	O.2	4	GLU4	-0.582	
48	  CB	1166.611	333.928	-1160.596	C.3	4	GLU4	0.056	
49	  CG	1166.063	334.932	-1161.661	C.3	4	GLU4	0.014	
50	  CD	1164.636	335.429	-1161.517	C.2	4	GLU4	0.805	
51	 OE1	1163.910	335.030	-1160.587	O.co2	4	GLU4	-0.819	
52	 OE2	1164.247	336.258	-1162.366	O.co2	4	GLU4	-0.819	
53	   H	1167.776	332.232	-1159.060	 H	4	GLU4	0.294	
54	  HA	1168.231	333.039	-1161.758	 H	4	GLU4	0.111	
55	 2HB	1166.459	334.368	-1159.589	 H	4	GLU4	-0.017	
56	 3HB	1165.964	333.030	-1160.602	 H	4	GLU4	-0.017	
57	 2HG	1166.145	334.517	-1162.679	 H	4	GLU4	-0.043	
58	 3HG	1166.651	335.864	-1161.672	 H	4	GLU4	-0.043	
59	   N	1169.226	335.274	-1159.562	N.am	5	SER5	-0.416	
60	  CA	1170.096	336.445	-1159.504	C.3	5	SER5	-0.025	
61	   C	1171.454	336.139	-1160.089	C.2	5	SER5	0.597	
62	   O	1172.001	336.893	-1160.894	O.2	5	SER5	-0.568	
63	  CB	1170.207	336.977	-1158.053	C.3	5	SER5	0.212	
64	  OG	1170.939	336.098	-1157.192	O.3	5	SER5	-0.655	
65	   H	1168.809	334.902	-1158.721	 H	5	SER5	0.272	
66	  HA	1169.646	337.235	-1160.133	 H	5	SER5	0.084	
67	 2HB	1169.208	337.171	-1157.620	 H	5	SER5	0.035	
68	 3HB	1170.713	337.963	-1158.055	 H	5	SER5	0.035	
69	  HG	1170.451	335.273	-1157.142	 H	5	SER5	0.428	
70	   N	1172.059	335.056	-1159.735	N.am	6	ILE6	-0.416	
71	  CA	1173.372	334.762	-1160.302	C.3	6	ILE6	-0.060	
72	   C	1173.315	334.724	-1161.810	C.2	6	ILE6	0.597	
73	   O	1174.150	335.312	-1162.514	O.2	6	ILE6	-0.568	
74	  CB	1173.972	333.426	-1159.702	C.3	6	ILE6	0.130	
75	 CG1	1173.992	333.363	-1158.141	C.3	6	ILE6	-0.043	
76	 CG2	1175.414	333.124	-1160.218	C.3	6	ILE6	-0.320	
77	 CD1	1174.262	331.974	-1157.526	C.3	6	ILE6	-0.066	
78	   H	1171.631	334.422	-1159.077	 H	6	ILE6	0.272	
79	  HA	1174.047	335.596	-1160.034	 H	6	ILE6	0.087	
80	  HB	1173.314	332.600	-1160.046	 H	6	ILE6	0.019	
81	2HG1	1173.010	333.683	-1157.745	 H	6	ILE6	0.024	
82	3HG1	1174.708	334.105	-1157.736	 H	6	ILE6	0.024	
83	1HG2	1175.472	333.031	-1161.316	 H	6	ILE6	0.088	
84	2HG2	1176.136	333.906	-1159.915	 H	6	ILE6	0.088	
85	3HG2	1175.804	332.162	-1159.839	 H	6	ILE6	0.088	
86	1HD1	1173.534	331.220	-1157.881	 H	6	ILE6	0.019	
87	2HD1	1175.273	331.595	-1157.762	 H	6	ILE6	0.019	
88	3HD1	1174.186	332.004	-1156.424	 H	6	ILE6	0.019	
89	   N	1172.369	334.061	-1162.383	N.am	7	GLU7	-0.516	
90	  CA	1172.314	334.025	-1163.842	C.3	7	GLU7	0.040	
91	   C	1172.241	335.419	-1164.415	C.2	7	GLU7	0.537	
92	   O	1172.961	335.781	-1165.357	O.2	7	GLU7	-0.582	
93	  CB	1171.088	333.184	-1164.300	C.3	7	GLU7	0.056	
94	  CG	1170.922	333.012	-1165.845	C.3	7	GLU7	0.014	
95	  CD	1169.713	332.255	-1166.361	C.2	7	GLU7	0.805	
96	 OE1	1168.882	331.762	-1165.574	O.co2	7	GLU7	-0.819	
97	 OE2	1169.596	332.171	-1167.602	O.co2	7	GLU7	-0.819	
98	   H	1171.677	333.574	-1161.832	 H	7	GLU7	0.294	
99	  HA	1173.237	333.550	-1164.220	 H	7	GLU7	0.111	
100	 2HB	1170.156	333.630	-1163.895	 H	7	GLU7	-0.017	
101	 3HB	1171.129	332.177	-1163.843	 H	7	GLU7	-0.017	
102	 2HG	1171.805	332.524	-1166.289	 H	7	GLU7	-0.043	
103	 3HG	1170.839	333.989	-1166.349	 H	7	GLU7	-0.043	
104	   N	1171.404	336.260	-1163.909	N.am	8	ASP8	-0.516	
105	  CA	1171.333	337.610	-1164.463	C.3	8	ASP8	0.038	
106	   C	1172.680	338.290	-1164.406	C.2	8	ASP8	0.537	
107	   O	1173.152	338.895	-1165.381	O.2	8	ASP8	-0.582	
108	  CB	1170.255	338.449	-1163.721	C.3	8	ASP8	-0.030	
109	  CG	1170.036	339.869	-1164.262	C.2	8	ASP8	0.799	
110	 OD1	1170.100	340.068	-1165.492	O.co2	8	ASP8	-0.801	
111	 OD2	1169.844	340.796	-1163.446	O.co2	8	ASP8	-0.801	
112	   H	1170.806	335.990	-1163.141	 H	8	ASP8	0.294	
113	  HA	1171.050	337.531	-1165.530	 H	8	ASP8	0.088	
114	 2HB	1170.513	338.532	-1162.649	 H	8	ASP8	-0.012	
115	 3HB	1169.276	337.944	-1163.753	 H	8	ASP8	-0.012	
116	   N	1173.360	338.240	-1163.311	N.am	9	GLU9	-0.516	
117	  CA	1174.662	338.898	-1163.257	C.3	9	GLU9	0.040	
118	   C	1175.580	338.370	-1164.333	C.2	9	GLU9	0.537	
119	   O	1176.244	339.125	-1165.059	O.2	9	GLU9	-0.582	
120	  CB	1175.297	338.691	-1161.851	C.3	9	GLU9	0.056	
121	  CG	1176.679	339.384	-1161.623	C.3	9	GLU9	0.014	
122	  CD	1177.381	339.172	-1160.295	C.2	9	GLU9	0.805	
123	 OE1	1176.860	338.481	-1159.398	O.co2	9	GLU9	-0.819	
124	 OE2	1178.501	339.710	-1160.164	O.co2	9	GLU9	-0.819	
125	   H	1172.997	337.754	-1162.504	 H	9	GLU9	0.294	
126	  HA	1174.520	339.980	-1163.432	 H	9	GLU9	0.111	
127	 2HB	1175.410	337.607	-1161.648	 H	9	GLU9	-0.017	
128	 3HB	1174.600	339.045	-1161.067	 H	9	GLU9	-0.017	
129	 2HG	1176.607	340.475	-1161.763	 H	9	GLU9	-0.043	
130	 3HG	1177.426	339.039	-1162.357	 H	9	GLU9	-0.043	
131	   N	1175.677	337.095	-1164.501	N.am	10	HIS10	-0.416	
132	  CA	1176.565	336.584	-1165.542	C.3	10	HIS10	-0.058	
133	   C	1176.197	337.148	-1166.893	C.2	10	HIS10	0.597	
134	   O	1177.049	337.612	-1167.666	O.2	10	HIS10	-0.568	
135	  CB	1176.401	335.055	-1165.536	C.3	10	HIS10	-0.007	
136	  CG	1177.687	334.345	-1165.229	C.2	10	HIS10	0.187	
137	 CD2	1178.069	334.010	-1163.936	C.2	10	HIS10	-0.221	
138	 ND1	1178.639	333.939	-1166.161	N.2	10	HIS10	-0.543	
139	 CE1	1179.546	333.382	-1165.338	C.2	10	HIS10	0.163	
140	 NE2	1179.284	333.379	-1164.003	N.pl3	10	HIS10	-0.280	
141	   H	1175.147	336.460	-1163.923	 H	10	HIS10	0.272	
142	  HA	1177.584	336.942	-1165.317	 H	10	HIS10	0.136	
143	 2HB	1176.036	334.687	-1166.516	 H	10	HIS10	0.037	
144	 3HB	1175.646	334.718	-1164.796	 H	10	HIS10	0.037	
145	 2HD	1177.484	334.225	-1163.047	 H	10	HIS10	0.186	
146	 1HE	1180.437	332.961	-1165.786	 H	10	HIS10	0.144	
147	 2HE	1179.851	333.002	-1163.230	 H	10	HIS10	0.334	
148	   N	1174.959	337.146	-1167.256	N.am	11	VAL11	-0.416	
149	  CA	1174.603	337.691	-1168.562	C.3	11	VAL11	-0.087	
150	   C	1175.067	339.122	-1168.696	C.2	11	VAL11	0.597	
151	   O	1175.667	339.527	-1169.699	O.2	11	VAL11	-0.568	
152	  CB	1173.042	337.584	-1168.781	C.3	11	VAL11	0.299	
153	 CG1	1172.472	338.287	-1170.044	C.3	11	VAL11	-0.319	
154	 CG2	1172.518	336.130	-1168.854	C.3	11	VAL11	-0.319	
155	   H	1174.247	336.773	-1166.645	 H	11	VAL11	0.272	
156	  HA	1175.123	337.109	-1169.345	 H	11	VAL11	0.097	
157	  HB	1172.555	338.064	-1167.906	 H	11	VAL11	-0.030	
158	1HG1	1172.911	337.895	-1170.981	 H	11	VAL11	0.079	
159	2HG1	1171.374	338.180	-1170.125	 H	11	VAL11	0.079	
160	3HG1	1172.650	339.380	-1170.035	 H	11	VAL11	0.079	
161	1HG2	1172.808	335.543	-1167.963	 H	11	VAL11	0.079	
162	2HG2	1171.412	336.092	-1168.896	 H	11	VAL11	0.079	
163	3HG2	1172.900	335.589	-1169.740	 H	11	VAL11	0.079	
164	   N	1174.830	339.948	-1167.733	N.am	12	GLN12	-0.416	
165	  CA	1175.278	341.332	-1167.861	C.3	12	GLN12	-0.003	
166	   C	1176.768	341.399	-1168.100	C.2	12	GLN12	0.597	
167	   O	1177.254	342.108	-1168.979	O.2	12	GLN12	-0.568	
168	  CB	1174.887	342.099	-1166.579	C.3	12	GLN12	-0.004	
169	  CG	1175.247	343.621	-1166.548	C.3	12	GLN12	-0.064	
170	  CD	1174.944	344.435	-1165.284	C.2	12	GLN12	0.695	
171	 NE2	1174.378	343.859	-1164.254	N.pl3	12	GLN12	-0.941	
172	 OE1	1175.246	345.616	-1165.207	O.2	12	GLN12	-0.609	
173	   H	1174.342	339.642	-1166.904	 H	12	GLN12	0.272	
174	  HA	1174.778	341.787	-1168.736	 H	12	GLN12	0.085	
175	 2HB	1175.364	341.600	-1165.709	 H	12	GLN12	0.017	
176	 3HB	1173.797	341.991	-1166.415	 H	12	GLN12	0.017	
177	 2HG	1174.769	344.141	-1167.399	 H	12	GLN12	0.035	
178	 3HG	1176.330	343.764	-1166.715	 H	12	GLN12	0.035	
179	1HE2	1174.271	344.453	-1163.431	 H	12	GLN12	0.425	
180	2HE2	1174.215	342.855	-1164.357	 H	12	GLN12	0.425	
181	   N	1177.553	340.693	-1167.359	N.am	13	ARG13	-0.348	
182	  CA	1178.993	340.759	-1167.591	C.3	13	ARG13	-0.264	
183	   C	1179.329	340.388	-1169.016	C.2	13	ARG13	0.734	
184	   O	1180.097	341.060	-1169.701	O.2	13	ARG13	-0.589	
185	  CB	1179.707	339.821	-1166.577	C.3	13	ARG13	-0.001	
186	  CG	1181.252	339.975	-1166.497	C.3	13	ARG13	0.039	
187	  CD	1181.880	338.987	-1165.500	C.3	13	ARG13	0.049	
188	  NE	1183.357	339.195	-1165.450	N.pl3	13	ARG13	-0.530	
189	  CZ	1184.206	338.504	-1164.695	C.cat	13	ARG13	0.808	
190	 NH1	1183.842	337.539	-1163.897	N.pl3	13	ARG13	-0.863	
191	 NH2	1185.465	338.803	-1164.753	N.pl3	13	ARG13	-0.863	
192	   H	1177.177	340.103	-1166.630	 H	13	ARG13	0.275	
193	  HA	1179.317	341.806	-1167.432	 H	13	ARG13	0.156	
194	 2HB	1179.441	338.770	-1166.816	 H	13	ARG13	0.033	
195	 3HB	1179.282	339.987	-1165.566	 H	13	ARG13	0.033	
196	 2HG	1181.500	341.019	-1166.218	 H	13	ARG13	0.029	
197	 3HG	1181.702	339.819	-1167.499	 H	13	ARG13	0.029	
198	 2HD	1181.636	337.947	-1165.808	 H	13	ARG13	0.069	
199	 3HD	1181.424	339.133	-1164.497	 H	13	ARG13	0.069	
200	  HE	1183.808	339.918	-1166.021	 H	13	ARG13	0.346	
201	1HH1	1182.836	337.353	-1163.900	 H	13	ARG13	0.448	
202	2HH1	1184.555	337.057	-1163.349	 H	13	ARG13	0.448	
203	1HH2	1185.732	339.561	-1165.384	 H	13	ARG13	0.448	
204	2HH2	1186.101	338.262	-1164.164	 H	13	ARG13	0.448	
205	   N	1178.793	339.333	-1169.530	N.am	14	VAL14	-0.416	
206	  CA	1179.117	338.974	-1170.907	C.3	14	VAL14	-0.087	
207	   C	1178.786	340.104	-1171.853	C.2	14	VAL14	0.597	
208	   O	1179.579	340.485	-1172.723	O.2	14	VAL14	-0.568	
209	  CB	1178.345	337.657	-1171.314	C.3	14	VAL14	0.299	
210	 CG1	1178.433	337.238	-1172.807	C.3	14	VAL14	-0.319	
211	 CG2	1178.778	336.405	-1170.514	C.3	14	VAL14	-0.319	
212	   H	1178.158	338.764	-1168.988	 H	14	VAL14	0.272	
213	  HA	1180.205	338.798	-1170.983	 H	14	VAL14	0.097	
214	  HB	1177.269	337.827	-1171.097	 H	14	VAL14	-0.030	
215	1HG1	1179.474	337.062	-1173.137	 H	14	VAL14	0.079	
216	2HG1	1177.861	336.315	-1173.020	 H	14	VAL14	0.079	
217	3HG1	1178.003	338.000	-1173.485	 H	14	VAL14	0.079	
218	1HG2	1178.691	336.563	-1169.423	 H	14	VAL14	0.079	
219	2HG2	1178.142	335.528	-1170.745	 H	14	VAL14	0.079	
220	3HG2	1179.825	336.115	-1170.720	 H	14	VAL14	0.079	
221	   N	1177.641	340.689	-1171.751	N.am	15	MET15	-0.416	
222	  CA	1177.319	341.781	-1172.664	C.3	15	MET15	-0.024	
223	   C	1178.349	342.882	-1172.577	C.2	15	MET15	0.597	
224	   O	1178.851	343.393	-1173.590	O.2	15	MET15	-0.568	
225	  CB	1175.898	342.327	-1172.355	C.3	15	MET15	0.034	
226	  CG	1174.736	341.328	-1172.546	C.3	15	MET15	0.002	
227	  SD	1173.162	342.193	-1172.431	S.3	15	MET15	-0.274	
228	  CE	1172.082	340.763	-1172.293	C.3	15	MET15	-0.054	
229	   H	1176.976	340.396	-1171.049	 H	15	MET15	0.272	
230	  HA	1177.345	341.394	-1173.700	 H	15	MET15	0.088	
231	 2HB	1175.695	343.205	-1172.997	 H	15	MET15	0.024	
232	 3HB	1175.863	342.719	-1171.318	 H	15	MET15	0.024	
233	 2HG	1174.780	340.542	-1171.768	 H	15	MET15	0.044	
234	 3HG	1174.799	340.812	-1173.522	 H	15	MET15	0.044	
235	 1HE	1172.225	340.075	-1173.146	 H	15	MET15	0.068	
236	 2HE	1172.292	340.211	-1171.360	 H	15	MET15	0.068	
237	 3HE	1171.024	341.078	-1172.276	 H	15	MET15	0.068	
238	   N	1178.719	343.303	-1171.415	N.am	16	ARG16	-0.348	
239	  CA	1179.715	344.367	-1171.332	C.3	16	ARG16	-0.264	
240	   C	1180.985	343.975	-1172.049	C.2	16	ARG16	0.734	
241	   O	1181.099	342.899	-1172.630	O.2	16	ARG16	-0.589	
242	  CB	1179.984	344.686	-1169.834	C.3	16	ARG16	-0.001	
243	  CG	1180.809	345.975	-1169.562	C.3	16	ARG16	0.039	
244	  CD	1181.059	346.195	-1168.061	C.3	16	ARG16	0.049	
245	  NE	1181.835	347.454	-1167.860	N.pl3	16	ARG16	-0.530	
246	  CZ	1182.226	347.937	-1166.685	C.cat	16	ARG16	0.808	
247	 NH1	1181.979	347.353	-1165.546	N.pl3	16	ARG16	-0.863	
248	 NH2	1182.890	349.050	-1166.667	N.pl3	16	ARG16	-0.863	
249	   H	1178.324	342.903	-1170.576	 H	16	ARG16	0.275	
250	  HA	1179.305	345.260	-1171.842	 H	16	ARG16	0.156	
251	 2HB	1180.482	343.810	-1169.368	 H	16	ARG16	0.033	
252	 3HB	1179.016	344.766	-1169.300	 H	16	ARG16	0.033	
253	 2HG	1180.278	346.846	-1169.999	 H	16	ARG16	0.029	
254	 3HG	1181.782	345.923	-1170.091	 H	16	ARG16	0.029	
255	 2HD	1181.608	345.321	-1167.648	 H	16	ARG16	0.069	
256	 3HD	1180.087	346.237	-1167.525	 H	16	ARG16	0.069	
257	  HE	1182.113	348.035	-1168.658	 H	16	ARG16	0.346	
258	1HH1	1181.454	346.479	-1165.630	 H	16	ARG16	0.448	
259	2HH1	1182.314	347.789	-1164.685	 H	16	ARG16	0.448	
260	1HH2	1183.075	349.493	-1167.569	 H	16	ARG16	0.448	
261	2HH2	1183.180	349.405	-1165.755	 H	16	ARG16	0.448	
@<TRIPOS>BOND
1 1 2 1
2 1 10 1
3 2 3 1
4 2 5 1
5 2 11 1
6 3 4 2
7 3 16 1
8 5 6 1
9 6 7 1
10 7 8 2
11 7 9 1
12 5 12 1
13 5 13 1
14 6 14 1
15 6 15 1
16 16 17 1
17 16 24 1
18 17 18 1
19 17 20 1
20 17 25 1
21 18 19 2
22 18 30 1
23 20 21 1
24 21 22 1
25 21 23 2
26 20 26 1
27 20 27 1
28 22 28 1
29 22 29 1
30 30 31 1
31 30 36 1
32 31 32 1
33 31 34 1
34 31 37 1
35 32 33 2
36 32 44 1
37 34 35 1
38 35 36 1
39 34 38 1
40 34 39 1
41 35 40 1
42 35 41 1
43 36 42 1
44 36 43 1
45 44 45 1
46 44 53 1
47 45 46 1
48 45 48 1
49 45 54 1
50 46 47 2
51 46 59 1
52 48 49 1
53 49 50 1
54 50 51 2
55 50 52 1
56 48 55 1
57 48 56 1
58 49 57 1
59 49 58 1
60 59 60 1
61 59 65 1
62 60 61 1
63 60 63 1
64 60 66 1
65 61 62 2
66 61 70 1
67 63 64 1
68 63 67 1
69 63 68 1
70 64 69 1
71 70 71 1
72 70 78 1
73 71 72 1
74 71 74 1
75 71 79 1
76 72 73 2
77 72 89 1
78 74 75 1
79 74 76 1
80 75 77 1
81 74 80 1
82 75 81 1
83 75 82 1
84 76 83 1
85 76 84 1
86 76 85 1
87 77 86 1
88 77 87 1
89 77 88 1
90 89 90 1
91 89 98 1
92 90 91 1
93 90 93 1
94 90 99 1
95 91 92 2
96 91 104 1
97 93 94 1
98 94 95 1
99 95 96 2
100 95 97 1
101 93 100 1
102 93 101 1
103 94 102 1
104 94 103 1
105 104 105 1
106 104 112 1
107 105 106 1
108 105 108 1
109 105 113 1
110 106 107 2
111 106 116 1
112 108 109 1
113 109 110 2
114 109 111 1
115 108 114 1
116 108 115 1
117 116 117 1
118 116 125 1
119 117 118 1
120 117 120 1
121 117 126 1
122 118 119 2
123 118 131 1
124 120 121 1
125 121 122 1
126 122 123 2
127 122 124 1
128 120 127 1
129 120 128 1
130 121 129 1
131 121 130 1
132 131 132 1
133 131 141 1
134 132 133 1
135 132 135 1
136 132 142 1
137 133 134 2
138 133 148 1
139 135 136 1
140 136 137 2
141 137 140 1
142 136 138 1
143 138 139 2
144 139 140 1
145 135 143 1
146 135 144 1
147 137 145 1
148 139 146 1
149 140 147 1
150 148 149 1
151 148 155 1
152 149 150 1
153 149 152 1
154 149 156 1
155 150 151 2
156 150 164 1
157 152 153 1
158 152 154 1
159 152 157 1
160 153 158 1
161 153 159 1
162 153 160 1
163 154 161 1
164 154 162 1
165 154 163 1
166 164 165 1
167 164 173 1
168 165 166 1
169 165 168 1
170 165 174 1
171 166 167 2
172 166 181 1
173 168 169 1
174 169 170 1
175 170 171 1
176 170 172 2
177 168 175 1
178 168 176 1
179 169 177 1
180 169 178 1
181 171 179 1
182 171 180 1
183 181 182 1
184 181 192 1
185 182 183 1
186 182 185 1
187 182 193 1
188 183 184 2
189 183 205 1
190 185 186 1
191 186 187 1
192 187 188 1
193 188 189 1
194 189 190 2
195 189 191 1
196 185 194 1
197 185 195 1
198 186 196 1
199 186 197 1
200 187 198 1
201 187 199 1
202 188 200 1
203 190 201 1
204 190 202 1
205 191 203 1
206 191 204 1
207 205 206 1
208 205 212 1
209 206 207 1
210 206 209 1
211 206 213 1
212 207 208 2
213 207 221 1
214 209 210 1
215 209 211 1
216 209 214 1
217 210 215 1
218 210 216 1
219 210 217 1
220 211 218 1
221 211 219 1
222 211 220 1
223 221 222 1
224 221 229 1
225 222 223 1
226 222 225 1
227 222 230 1
228 223 224 2
229 223 238 1
230 225 226 1
231 226 227 1
232 227 228 1
233 225 231 1
234 225 232 1
235 226 233 1
236 226 234 1
237 228 235 1
238 228 236 1
239 228 237 1
240 238 239 1
241 238 249 1
242 239 240 1
243 239 242 1
244 239 250 1
245 240 241 2
246 242 243 1
247 243 244 1
248 244 245 1
249 245 246 1
250 246 247 2
251 246 248 1
252 242 251 1
253 242 252 1
254 243 253 1
255 243 254 1
256 244 255 1
257 244 256 1
258 245 257 1
259 247 258 1
260 247 259 1
261 248 260 1
262 248 261 1
@<TRIPOS>SUBSTRUCTURE
1	GLU1	1	RESIDUE	1 ****	GLU
2	ASN2	16	RESIDUE	1 ****	ASN
3	PRO3	30	RESIDUE	1 ****	PRO
4	GLU4	44	RESIDUE	1 ****	GLU
5	SER5	59	RESIDUE	1 ****	SER
6	ILE6	70	RESIDUE	1 ****	ILE
7	GLU7	89	RESIDUE	1 ****	GLU
8	ASP8	104	RESIDUE	1 ****	ASP
9	GLU9	116	RESIDUE	1 ****	GLU
10	HIS10	131	RESIDUE	1 ****	HIS
11	VAL11	148	RESIDUE	1 ****	VAL
12	GLN12	164	RESIDUE	1 ****	GLN
13	ARG13	181	RESIDUE	1 ****	ARG
14	VAL14	205	RESIDUE	1 ****	VAL
15	MET15	221	RESIDUE	1 ****	MET
16	ARG16	238	RESIDUE	1 ****	ARG
