@<TRIPOS>MOLECULE
2-2
265 267 16              
SMALL
USER_CHARGES
@<TRIPOS>ATOM
1	   N	181.727	28.713	-151.894	N.3	1	GLU1	-0.516	
2	  CA	182.286	30.062	-151.894	C.3	1	GLU1	0.040	
3	   C	183.795	30.022	-151.894	C.2	1	GLU1	0.537	
4	   O	184.471	30.721	-152.663	O.2	1	GLU1	-0.582	
5	  CB	181.763	30.847	-150.657	C.3	1	GLU1	0.056	
6	  CG	182.238	32.332	-150.546	C.3	1	GLU1	0.014	
7	  CD	181.814	33.136	-149.331	C.2	1	GLU1	0.805	
8	 OE1	181.086	32.634	-148.453	O.co2	1	GLU1	-0.819	
9	 OE2	182.244	34.306	-149.259	O.co2	1	GLU1	-0.819	
10	   H	182.354	27.834	-151.894	 H	1	GLU1	0.294	
11	  HA	181.960	30.580	-152.814	 H	1	GLU1	0.111	
12	 2HB	182.052	30.316	-149.727	 H	1	GLU1	-0.017	
13	 3HB	180.656	30.837	-150.644	 H	1	GLU1	-0.017	
14	 2HG	181.928	32.917	-151.427	 H	1	GLU1	-0.043	
15	 3HG	183.338	32.399	-150.517	 H	1	GLU1	-0.043	
16	   N	184.400	29.236	-151.069	N.am	2	PRO2	-0.255	
17	  CA	185.850	29.136	-151.004	C.3	2	PRO2	-0.027	
18	   C	186.427	28.437	-152.247	C.2	2	PRO2	0.590	
19	   O	187.393	28.917	-152.841	O.2	2	PRO2	-0.575	
20	  CB	186.054	28.329	-149.712	C.3	2	PRO2	-0.007	
21	  CG	184.791	27.459	-149.626	C.3	2	PRO2	0.019	
22	  CD	183.687	28.387	-150.139	C.3	2	PRO2	0.019	
23	  HA	186.299	30.129	-150.919	 H	2	PRO2	0.064	
24	 2HB	186.076	29.017	-148.864	 H	2	PRO2	0.025	
25	 3HB	186.975	27.741	-149.719	 H	2	PRO2	0.025	
26	 2HG	184.594	27.106	-148.611	 H	2	PRO2	0.021	
27	 3HG	184.889	26.604	-150.298	 H	2	PRO2	0.021	
28	 2HD	183.280	28.996	-149.329	 H	2	PRO2	0.039	
29	 3HD	182.887	27.839	-150.640	 H	2	PRO2	0.039	
30	   N	185.895	27.341	-152.669	N.am	3	PRO3	-0.255	
31	  CA	186.392	26.630	-153.838	C.3	3	PRO3	-0.027	
32	   C	186.089	27.395	-155.138	C.2	3	PRO3	0.590	
33	   O	186.966	27.556	-155.987	O.2	3	PRO3	-0.575	
34	  CB	185.641	25.294	-153.739	C.3	3	PRO3	-0.007	
35	  CG	184.327	25.668	-153.037	C.3	3	PRO3	0.019	
36	  CD	184.760	26.725	-152.018	C.3	3	PRO3	0.019	
37	  HA	187.471	26.478	-153.764	 H	3	PRO3	0.064	
38	 2HB	186.209	24.614	-153.100	 H	3	PRO3	0.025	
39	 3HB	185.483	24.822	-154.711	 H	3	PRO3	0.025	
40	 2HG	183.846	24.810	-152.562	 H	3	PRO3	0.021	
41	 3HG	183.642	26.118	-153.758	 H	3	PRO3	0.021	
42	 2HD	185.084	26.259	-151.084	 H	3	PRO3	0.039	
43	 3HD	183.973	27.457	-151.822	 H	3	PRO3	0.039	
44	   N	184.907	27.872	-155.340	N.am	4	GLU4	-0.516	
45	  CA	184.638	28.595	-156.579	C.3	4	GLU4	0.040	
46	   C	185.583	29.761	-156.741	C.2	4	GLU4	0.537	
47	   O	186.176	29.983	-157.806	O.2	4	GLU4	-0.582	
48	  CB	183.162	29.086	-156.590	C.3	4	GLU4	0.056	
49	  CG	182.707	29.839	-157.883	C.3	4	GLU4	0.014	
50	  CD	181.297	30.397	-157.934	C.2	4	GLU4	0.805	
51	 OE1	180.512	30.242	-156.979	O.co2	4	GLU4	-0.819	
52	 OE2	180.984	31.025	-158.967	O.co2	4	GLU4	-0.819	
53	   H	184.179	27.747	-154.651	 H	4	GLU4	0.294	
54	  HA	184.796	27.909	-157.431	 H	4	GLU4	0.111	
55	 2HB	182.980	29.746	-155.718	 H	4	GLU4	-0.017	
56	 3HB	182.478	28.230	-156.431	 H	4	GLU4	-0.017	
57	 2HG	182.820	29.202	-158.775	 H	4	GLU4	-0.043	
58	 3HG	183.334	30.726	-158.070	 H	4	GLU4	-0.043	
59	   N	185.778	30.551	-155.740	N.am	5	SER5	-0.416	
60	  CA	186.692	31.679	-155.897	C.3	5	SER5	-0.025	
61	   C	188.063	31.208	-156.322	C.2	5	SER5	0.597	
62	   O	188.679	31.744	-157.244	O.2	5	SER5	-0.568	
63	  CB	186.756	32.522	-154.599	C.3	5	SER5	0.212	
64	  OG	187.409	31.838	-153.523	O.3	5	SER5	-0.655	
65	   H	185.306	30.392	-154.861	 H	5	SER5	0.272	
66	  HA	186.306	32.320	-156.711	 H	5	SER5	0.084	
67	 2HB	185.746	32.838	-154.276	 H	5	SER5	0.035	
68	 3HB	187.302	33.466	-154.794	 H	5	SER5	0.035	
69	  HG	186.884	31.061	-153.316	 H	5	SER5	0.428	
70	   N	188.605	30.216	-155.701	N.am	6	ILE6	-0.416	
71	  CA	189.930	29.762	-156.113	C.3	6	ILE6	-0.060	
72	   C	189.943	29.386	-157.575	C.2	6	ILE6	0.597	
73	   O	190.834	29.774	-158.345	O.2	6	ILE6	-0.568	
74	  CB	190.444	28.578	-155.196	C.3	6	ILE6	0.130	
75	 CG1	190.387	28.870	-153.662	C.3	6	ILE6	-0.043	
76	 CG2	191.895	28.125	-155.549	C.3	6	ILE6	-0.320	
77	 CD1	190.569	27.648	-152.737	C.3	6	ILE6	-0.066	
78	   H	188.119	29.760	-154.942	 H	6	ILE6	0.272	
79	  HA	190.625	30.614	-156.002	 H	6	ILE6	0.087	
80	  HB	189.770	27.716	-155.382	 H	6	ILE6	0.019	
81	2HG1	189.401	29.300	-153.404	 H	6	ILE6	0.024	
82	3HG1	191.113	29.663	-153.395	 H	6	ILE6	0.024	
83	1HG2	192.002	27.784	-156.594	 H	6	ILE6	0.088	
84	2HG2	192.634	28.934	-155.390	 H	6	ILE6	0.088	
85	3HG2	192.226	27.262	-154.943	 H	6	ILE6	0.088	
86	1HD1	189.828	26.856	-152.954	 H	6	ILE6	0.019	
87	2HD1	191.573	27.196	-152.826	 H	6	ILE6	0.019	
88	3HD1	190.442	27.929	-151.675	 H	6	ILE6	0.019	
89	   N	188.999	28.638	-158.037	N.am	7	LEU7	-0.416	
90	  CA	189.012	28.275	-159.451	C.3	7	LEU7	-0.052	
91	   C	189.025	29.507	-160.325	C.2	7	LEU7	0.597	
92	   O	189.804	29.626	-161.282	O.2	7	LEU7	-0.568	
93	  CB	187.799	27.365	-159.793	C.3	7	LEU7	-0.110	
94	  CG	187.642	26.032	-159.011	C.3	7	LEU7	0.353	
95	 CD1	186.457	25.230	-159.567	C.3	7	LEU7	-0.412	
96	 CD2	188.915	25.169	-159.048	C.3	7	LEU7	-0.412	
97	   H	188.262	28.309	-157.430	 H	7	LEU7	0.272	
98	  HA	189.952	27.734	-159.664	 H	7	LEU7	0.092	
99	 2HB	187.829	27.131	-160.875	 H	7	LEU7	0.046	
100	 3HB	186.867	27.951	-159.662	 H	7	LEU7	0.046	
101	  HG	187.420	26.277	-157.951	 H	7	LEU7	-0.036	
102	1HD1	185.512	25.805	-159.518	 H	7	LEU7	0.100	
103	2HD1	186.607	24.939	-160.624	 H	7	LEU7	0.100	
104	3HD1	186.290	24.300	-158.993	 H	7	LEU7	0.100	
105	1HD2	189.241	24.948	-160.080	 H	7	LEU7	0.100	
106	2HD2	189.756	25.673	-158.537	 H	7	LEU7	0.100	
107	3HD2	188.775	24.204	-158.526	 H	7	LEU7	0.100	
108	   N	188.201	30.464	-160.067	N.am	8	ASP8	-0.516	
109	  CA	188.213	31.656	-160.912	C.3	8	ASP8	0.038	
110	   C	189.582	32.290	-160.933	C.2	8	ASP8	0.537	
111	   O	190.126	32.645	-161.991	O.2	8	ASP8	-0.582	
112	  CB	187.136	32.672	-160.438	C.3	8	ASP8	-0.030	
113	  CG	187.003	33.940	-161.295	C.2	8	ASP8	0.799	
114	 OD1	187.134	33.854	-162.533	O.co2	8	ASP8	-0.801	
115	 OD2	186.811	35.031	-160.720	O.co2	8	ASP8	-0.801	
116	   H	187.556	30.392	-159.293	 H	8	ASP8	0.294	
117	  HA	187.978	31.347	-161.948	 H	8	ASP8	0.088	
118	 2HB	187.346	32.988	-159.400	 H	8	ASP8	-0.012	
119	 3HB	186.140	32.202	-160.412	 H	8	ASP8	-0.012	
120	   N	190.206	32.469	-159.819	N.am	9	GLU9	-0.516	
121	  CA	191.531	33.083	-159.839	C.3	9	GLU9	0.040	
122	   C	192.477	32.299	-160.717	C.2	9	GLU9	0.537	
123	   O	193.205	32.850	-161.554	O.2	9	GLU9	-0.582	
124	  CB	192.088	33.180	-158.390	C.3	9	GLU9	0.056	
125	  CG	193.485	33.864	-158.245	C.3	9	GLU9	0.014	
126	  CD	194.114	33.936	-156.866	C.2	9	GLU9	0.805	
127	 OE1	193.522	33.481	-155.868	O.co2	9	GLU9	-0.819	
128	 OE2	195.247	34.456	-156.795	O.co2	9	GLU9	-0.819	
129	   H	189.785	32.189	-158.945	 H	9	GLU9	0.294	
130	  HA	191.443	34.101	-160.260	 H	9	GLU9	0.111	
131	 2HB	192.146	32.166	-157.943	 H	9	GLU9	-0.017	
132	 3HB	191.369	33.721	-157.745	 H	9	GLU9	-0.017	
133	 2HG	193.466	34.897	-158.629	 H	9	GLU9	-0.043	
134	 3HG	194.251	33.340	-158.840	 H	9	GLU9	-0.043	
135	   N	192.528	31.016	-160.590	N.am	10	HIS10	-0.416	
136	  CA	193.443	30.257	-161.439	C.3	10	HIS10	-0.058	
137	   C	193.165	30.512	-162.900	C.2	10	HIS10	0.597	
138	   O	194.071	30.765	-163.708	O.2	10	HIS10	-0.568	
139	  CB	193.215	28.774	-161.100	C.3	10	HIS10	-0.007	
140	  CG	194.454	28.114	-160.570	C.2	10	HIS10	0.187	
141	 CD2	194.759	28.068	-159.216	C.2	10	HIS10	-0.221	
142	 ND1	195.432	27.480	-161.333	N.2	10	HIS10	-0.543	
143	 CE1	196.274	27.095	-160.356	C.2	10	HIS10	0.163	
144	 NE2	195.948	27.402	-159.071	N.pl3	10	HIS10	-0.280	
145	   H	191.944	30.544	-159.915	 H	10	HIS10	0.272	
146	  HA	194.464	30.625	-161.243	 H	10	HIS10	0.136	
147	 2HB	192.883	28.206	-161.992	 H	10	HIS10	0.037	
148	 3HB	192.412	28.635	-160.347	 H	10	HIS10	0.037	
149	 2HD	194.141	28.496	-158.432	 H	10	HIS10	0.186	
150	 1HE	197.167	26.558	-160.647	 H	10	HIS10	0.144	
151	 2HE	196.461	27.193	-158.203	 H	10	HIS10	0.334	
152	   N	191.946	30.466	-163.322	N.am	11	VAL11	-0.416	
153	  CA	191.677	30.713	-164.736	C.3	11	VAL11	-0.087	
154	   C	192.206	32.062	-165.159	C.2	11	VAL11	0.597	
155	   O	192.871	32.212	-166.192	O.2	11	VAL11	-0.568	
156	  CB	190.125	30.606	-165.013	C.3	11	VAL11	0.299	
157	 CG1	189.647	31.023	-166.431	C.3	11	VAL11	-0.319	
158	 CG2	189.545	29.189	-164.787	C.3	11	VAL11	-0.319	
159	   H	191.190	30.262	-162.684	 H	11	VAL11	0.272	
160	  HA	192.209	29.954	-165.338	 H	11	VAL11	0.097	
161	  HB	189.617	31.286	-164.296	 H	11	VAL11	-0.030	
162	1HG1	190.113	30.417	-167.230	 H	11	VAL11	0.079	
163	2HG1	188.550	30.933	-166.548	 H	11	VAL11	0.079	
164	3HG1	189.870	32.083	-166.656	 H	11	VAL11	0.079	
165	1HG2	189.767	28.810	-163.773	 H	11	VAL11	0.079	
166	2HG2	188.442	29.176	-164.882	 H	11	VAL11	0.079	
167	3HG2	189.946	28.451	-165.508	 H	11	VAL11	0.079	
168	   N	191.958	33.091	-164.421	N.am	12	GLN12	-0.416	
169	  CA	192.469	34.395	-164.830	C.3	12	GLN12	-0.003	
170	   C	193.970	34.363	-164.993	C.2	12	GLN12	0.597	
171	   O	194.528	34.840	-165.979	O.2	12	GLN12	-0.568	
172	  CB	192.050	35.444	-163.775	C.3	12	GLN12	-0.004	
173	  CG	192.471	36.922	-164.066	C.3	12	GLN12	-0.064	
174	  CD	192.142	38.009	-163.034	C.2	12	GLN12	0.695	
175	 NE2	191.503	37.697	-161.936	N.pl3	12	GLN12	-0.941	
176	 OE1	192.489	39.167	-163.207	O.2	12	GLN12	-0.609	
177	   H	191.418	32.994	-163.573	 H	12	GLN12	0.272	
178	  HA	192.031	34.657	-165.811	 H	12	GLN12	0.085	
179	 2HB	192.462	35.139	-162.791	 H	12	GLN12	0.017	
180	 3HB	190.949	35.408	-163.653	 H	12	GLN12	0.017	
181	 2HG	192.056	37.251	-165.037	 H	12	GLN12	0.035	
182	 3HG	193.566	36.991	-164.198	 H	12	GLN12	0.035	
183	1HE2	191.382	38.465	-161.274	 H	12	GLN12	0.425	
184	2HE2	191.303	36.701	-161.821	 H	12	GLN12	0.425	
185	   N	194.688	33.819	-164.070	N.am	13	ARG13	-0.348	
186	  CA	196.140	33.788	-164.229	C.3	13	ARG13	-0.264	
187	   C	196.528	33.094	-165.513	C.2	13	ARG13	0.734	
188	   O	197.355	33.571	-166.286	O.2	13	ARG13	-0.589	
189	  CB	196.764	33.082	-162.992	C.3	13	ARG13	-0.001	
190	  CG	198.308	33.203	-162.861	C.3	13	ARG13	0.039	
191	  CD	198.846	32.448	-161.634	C.3	13	ARG13	0.049	
192	  NE	200.326	32.617	-161.549	N.pl3	13	ARG13	-0.530	
193	  CZ	201.108	32.089	-160.612	C.cat	13	ARG13	0.808	
194	 NH1	200.665	31.341	-159.641	N.pl3	13	ARG13	-0.863	
195	 NH2	202.380	32.330	-160.664	N.pl3	13	ARG13	-0.863	
196	   H	194.254	33.420	-163.250	 H	13	ARG13	0.275	
197	  HA	196.499	34.833	-164.291	 H	13	ARG13	0.156	
198	 2HB	196.466	32.013	-163.004	 H	13	ARG13	0.033	
199	 3HB	196.298	33.485	-162.070	 H	13	ARG13	0.033	
200	 2HG	198.586	34.276	-162.810	 H	13	ARG13	0.029	
201	 3HG	198.799	32.812	-163.776	 H	13	ARG13	0.029	
202	 2HD	198.573	31.373	-161.716	 H	13	ARG13	0.069	
203	 3HD	198.348	32.830	-160.717	 H	13	ARG13	0.069	
204	  HE	200.833	33.178	-162.241	 H	13	ARG13	0.346	
205	1HH1	199.654	31.189	-159.658	 H	13	ARG13	0.448	
206	2HH1	201.331	30.974	-158.959	 H	13	ARG13	0.448	
207	1HH2	202.708	32.918	-161.433	 H	13	ARG13	0.448	
208	2HH2	202.963	31.917	-159.934	 H	13	ARG13	0.448	
209	   N	195.973	31.967	-165.808	N.am	14	VAL14	-0.416	
210	  CA	196.349	31.297	-167.049	C.3	14	VAL14	-0.087	
211	   C	196.111	32.193	-168.241	C.2	14	VAL14	0.597	
212	   O	196.960	32.345	-169.128	O.2	14	VAL14	-0.568	
213	  CB	195.543	29.945	-167.193	C.3	14	VAL14	0.299	
214	 CG1	195.685	29.198	-168.548	C.3	14	VAL14	-0.319	
215	 CG2	195.883	28.894	-166.110	C.3	14	VAL14	-0.319	
216	   H	195.290	31.555	-165.188	 H	14	VAL14	0.272	
217	  HA	197.431	31.076	-167.022	 H	14	VAL14	0.097	
218	  HB	194.465	30.193	-167.082	 H	14	VAL14	-0.030	
219	1HG1	196.733	28.921	-168.770	 H	14	VAL14	0.079	
220	2HG1	195.086	28.268	-168.580	 H	14	VAL14	0.079	
221	3HG1	195.321	29.800	-169.402	 H	14	VAL14	0.079	
222	1HG2	195.751	29.297	-165.089	 H	14	VAL14	0.079	
223	2HG2	195.224	28.007	-166.175	 H	14	VAL14	0.079	
224	3HG2	196.927	28.534	-166.187	 H	14	VAL14	0.079	
225	   N	194.988	32.821	-168.337	N.am	15	MET15	-0.416	
226	  CA	194.757	33.688	-169.489	C.3	15	MET15	-0.024	
227	   C	195.827	34.748	-169.592	C.2	15	MET15	0.597	
228	   O	196.398	35.002	-170.664	O.2	15	MET15	-0.568	
229	  CB	193.347	34.331	-169.390	C.3	15	MET15	0.034	
230	  CG	192.155	33.350	-169.418	C.3	15	MET15	0.002	
231	  SD	190.614	34.266	-169.588	S.3	15	MET15	-0.274	
232	  CE	189.470	32.937	-169.196	C.3	15	MET15	-0.054	
233	   H	194.279	32.714	-167.626	 H	15	MET15	0.272	
234	  HA	194.816	33.076	-170.408	 H	15	MET15	0.088	
235	 2HB	193.212	35.048	-170.223	 H	15	MET15	0.024	
236	 3HB	193.278	34.948	-168.471	 H	15	MET15	0.024	
237	 2HG	192.128	32.760	-168.483	 H	15	MET15	0.044	
238	 3HG	192.243	32.626	-170.249	 H	15	MET15	0.044	
239	 1HE	189.625	32.070	-169.863	 H	15	MET15	0.068	
240	 2HE	189.611	32.603	-168.152	 H	15	MET15	0.068	
241	 3HE	188.426	33.279	-169.309	 H	15	MET15	0.068	
242	   N	196.157	35.410	-168.535	N.am	16	ARG16	-0.348	
243	  CA	197.192	36.435	-168.636	C.3	16	ARG16	-0.264	
244	   C	198.478	35.853	-169.174	C.2	16	ARG16	0.734	
245	   O	198.574	34.670	-169.492	O.2	16	ARG16	-0.589	
246	  CB	197.402	37.075	-167.234	C.3	16	ARG16	-0.001	
247	  CG	198.266	38.367	-167.212	C.3	16	ARG16	0.039	
248	  CD	198.452	38.912	-165.786	C.3	16	ARG16	0.049	
249	  NE	199.270	40.160	-165.829	N.pl3	16	ARG16	-0.530	
250	  CZ	199.624	40.884	-164.771	C.cat	16	ARG16	0.808	
251	 NH1	199.298	40.579	-163.547	N.pl3	16	ARG16	-0.863	
252	 NH2	200.332	41.952	-164.966	N.pl3	16	ARG16	-0.863	
253	   H	195.706	35.221	-167.651	 H	16	ARG16	0.275	
254	  HA	196.845	37.201	-169.355	 H	16	ARG16	0.156	
255	 2HB	197.839	36.312	-166.557	 H	16	ARG16	0.033	
256	 3HB	196.413	37.303	-166.787	 H	16	ARG16	0.033	
257	 2HG	197.793	39.132	-167.862	 H	16	ARG16	0.029	
258	 3HG	199.260	38.167	-167.660	 H	16	ARG16	0.029	
259	 2HD	198.944	38.138	-165.157	 H	16	ARG16	0.069	
260	 3HD	197.458	39.104	-165.329	 H	16	ARG16	0.069	
261	  HE	199.610	40.538	-166.719	 H	16	ARG16	0.346	
262	1HH1	198.741	39.726	-163.463	 H	16	ARG16	0.448	
263	2HH1	199.609	41.188	-162.788	 H	16	ARG16	0.448	
264	1HH2	200.578	42.174	-165.932	 H	16	ARG16	0.448	
265	2HH2	200.593	42.495	-164.141	 H	16	ARG16	0.448	
@<TRIPOS>BOND
1 1 2 1
2 1 10 1
3 2 3 1
4 2 5 1
5 2 11 1
6 3 4 2
7 3 16 1
8 5 6 1
9 6 7 1
10 7 8 2
11 7 9 1
12 5 12 1
13 5 13 1
14 6 14 1
15 6 15 1
16 16 17 1
17 16 22 1
18 17 18 1
19 17 20 1
20 17 23 1
21 18 19 2
22 18 30 1
23 20 21 1
24 21 22 1
25 20 24 1
26 20 25 1
27 21 26 1
28 21 27 1
29 22 28 1
30 22 29 1
31 30 31 1
32 30 36 1
33 31 32 1
34 31 34 1
35 31 37 1
36 32 33 2
37 32 44 1
38 34 35 1
39 35 36 1
40 34 38 1
41 34 39 1
42 35 40 1
43 35 41 1
44 36 42 1
45 36 43 1
46 44 45 1
47 44 53 1
48 45 46 1
49 45 48 1
50 45 54 1
51 46 47 2
52 46 59 1
53 48 49 1
54 49 50 1
55 50 51 2
56 50 52 1
57 48 55 1
58 48 56 1
59 49 57 1
60 49 58 1
61 59 60 1
62 59 65 1
63 60 61 1
64 60 63 1
65 60 66 1
66 61 62 2
67 61 70 1
68 63 64 1
69 63 67 1
70 63 68 1
71 64 69 1
72 70 71 1
73 70 78 1
74 71 72 1
75 71 74 1
76 71 79 1
77 72 73 2
78 72 89 1
79 74 75 1
80 74 76 1
81 75 77 1
82 74 80 1
83 75 81 1
84 75 82 1
85 76 83 1
86 76 84 1
87 76 85 1
88 77 86 1
89 77 87 1
90 77 88 1
91 89 90 1
92 89 97 1
93 90 91 1
94 90 93 1
95 90 98 1
96 91 92 2
97 91 108 1
98 93 94 1
99 94 95 1
100 94 96 1
101 93 99 1
102 93 100 1
103 94 101 1
104 95 102 1
105 95 103 1
106 95 104 1
107 96 105 1
108 96 106 1
109 96 107 1
110 108 109 1
111 108 116 1
112 109 110 1
113 109 112 1
114 109 117 1
115 110 111 2
116 110 120 1
117 112 113 1
118 113 114 2
119 113 115 1
120 112 118 1
121 112 119 1
122 120 121 1
123 120 129 1
124 121 122 1
125 121 124 1
126 121 130 1
127 122 123 2
128 122 135 1
129 124 125 1
130 125 126 1
131 126 127 2
132 126 128 1
133 124 131 1
134 124 132 1
135 125 133 1
136 125 134 1
137 135 136 1
138 135 145 1
139 136 137 1
140 136 139 1
141 136 146 1
142 137 138 2
143 137 152 1
144 139 140 1
145 140 141 2
146 141 144 1
147 140 142 1
148 142 143 2
149 143 144 1
150 139 147 1
151 139 148 1
152 141 149 1
153 143 150 1
154 144 151 1
155 152 153 1
156 152 159 1
157 153 154 1
158 153 156 1
159 153 160 1
160 154 155 2
161 154 168 1
162 156 157 1
163 156 158 1
164 156 161 1
165 157 162 1
166 157 163 1
167 157 164 1
168 158 165 1
169 158 166 1
170 158 167 1
171 168 169 1
172 168 177 1
173 169 170 1
174 169 172 1
175 169 178 1
176 170 171 2
177 170 185 1
178 172 173 1
179 173 174 1
180 174 175 1
181 174 176 2
182 172 179 1
183 172 180 1
184 173 181 1
185 173 182 1
186 175 183 1
187 175 184 1
188 185 186 1
189 185 196 1
190 186 187 1
191 186 189 1
192 186 197 1
193 187 188 2
194 187 209 1
195 189 190 1
196 190 191 1
197 191 192 1
198 192 193 1
199 193 194 2
200 193 195 1
201 189 198 1
202 189 199 1
203 190 200 1
204 190 201 1
205 191 202 1
206 191 203 1
207 192 204 1
208 194 205 1
209 194 206 1
210 195 207 1
211 195 208 1
212 209 210 1
213 209 216 1
214 210 211 1
215 210 213 1
216 210 217 1
217 211 212 2
218 211 225 1
219 213 214 1
220 213 215 1
221 213 218 1
222 214 219 1
223 214 220 1
224 214 221 1
225 215 222 1
226 215 223 1
227 215 224 1
228 225 226 1
229 225 233 1
230 226 227 1
231 226 229 1
232 226 234 1
233 227 228 2
234 227 242 1
235 229 230 1
236 230 231 1
237 231 232 1
238 229 235 1
239 229 236 1
240 230 237 1
241 230 238 1
242 232 239 1
243 232 240 1
244 232 241 1
245 242 243 1
246 242 253 1
247 243 244 1
248 243 246 1
249 243 254 1
250 244 245 2
251 246 247 1
252 247 248 1
253 248 249 1
254 249 250 1
255 250 251 2
256 250 252 1
257 246 255 1
258 246 256 1
259 247 257 1
260 247 258 1
261 248 259 1
262 248 260 1
263 249 261 1
264 251 262 1
265 251 263 1
266 252 264 1
267 252 265 1
@<TRIPOS>SUBSTRUCTURE
1	GLU1	1	RESIDUE	1 ****	GLU
2	PRO2	16	RESIDUE	1 ****	PRO
3	PRO3	30	RESIDUE	1 ****	PRO
4	GLU4	44	RESIDUE	1 ****	GLU
5	SER5	59	RESIDUE	1 ****	SER
6	ILE6	70	RESIDUE	1 ****	ILE
7	LEU7	89	RESIDUE	1 ****	LEU
8	ASP8	108	RESIDUE	1 ****	ASP
9	GLU9	120	RESIDUE	1 ****	GLU
10	HIS10	135	RESIDUE	1 ****	HIS
11	VAL11	152	RESIDUE	1 ****	VAL
12	GLN12	168	RESIDUE	1 ****	GLN
13	ARG13	185	RESIDUE	1 ****	ARG
14	VAL14	209	RESIDUE	1 ****	VAL
15	MET15	225	RESIDUE	1 ****	MET
16	ARG16	242	RESIDUE	1 ****	ARG
