REMARK WARNING: 32 MAX_TORS EXCEEDED!!!
REMARK  68 active torsions:
REMARK  status: ('A' for Active; 'I' for Inactive)
REMARK    1  A    between atoms: N_1  and  CA_2 
REMARK    2  A    between atoms: CA_2  and  C_3 
REMARK    3  A    between atoms: CA_2  and  CB_5 
REMARK       I    between atoms: C_3  and  N_11 
REMARK    4  A    between atoms: CB_5  and  CG_6 
REMARK    5  A    between atoms: CG_6  and  CD_7 
REMARK    6  A    between atoms: N_11  and  CA_12 
REMARK    7  A    between atoms: CA_12  and  C_13 
REMARK    8  A    between atoms: CA_12  and  CB_15 
REMARK       I    between atoms: C_13  and  N_22 
REMARK    9  A    between atoms: CB_15  and  CG_16 
REMARK       I    between atoms: CG_16  and  ND2_17 
REMARK   10  A    between atoms: CA_23  and  C_24 
REMARK       I    between atoms: C_24  and  N_29 
REMARK   11  A    between atoms: N_29  and  CA_30 
REMARK   12  A    between atoms: CA_30  and  C_31 
REMARK   13  A    between atoms: CA_30  and  CB_33 
REMARK       I    between atoms: C_31  and  N_39 
REMARK   14  A    between atoms: CB_33  and  CG_34 
REMARK   15  A    between atoms: CG_34  and  CD_35 
REMARK   16  A    between atoms: N_39  and  CA_40 
REMARK   17  A    between atoms: CA_40  and  C_41 
REMARK   18  A    between atoms: CA_40  and  CB_43 
REMARK       I    between atoms: C_41  and  N_47 
REMARK   19  A    between atoms: CB_43  and  OG_44 
REMARK   20  A    between atoms: N_47  and  CA_48 
REMARK   21  A    between atoms: CA_48  and  C_49 
REMARK   22  A    between atoms: CA_48  and  CB_51 
REMARK       I    between atoms: C_49  and  N_56 
REMARK   23  A    between atoms: CB_51  and  CG1_52 
REMARK   24  A    between atoms: N_56  and  CA_57 
REMARK   25  A    between atoms: CA_57  and  C_58 
REMARK   26  A    between atoms: CA_57  and  CB_60 
REMARK       I    between atoms: C_58  and  N_65 
REMARK   27  A    between atoms: CB_60  and  CG_61 
REMARK   28  A    between atoms: N_65  and  CA_66 
REMARK   29  A    between atoms: CA_66  and  C_67 
REMARK   30  A    between atoms: CA_66  and  CB_69 
REMARK       I    between atoms: C_67  and  N_81 
REMARK   31  A    between atoms: CB_69  and  CG_70 
REMARK   32  A    between atoms: N_81  and  CA_82 
REMARK   33  A    between atoms: CA_82  and  C_83 
REMARK   34  A    between atoms: CA_82  and  CB_85 
REMARK       I    between atoms: C_83  and  N_91 
REMARK   35  A    between atoms: CB_85  and  CG_86 
REMARK   36  A    between atoms: CG_86  and  CD_87 
REMARK   37  A    between atoms: N_91  and  CA_92 
REMARK   38  A    between atoms: CA_92  and  C_93 
REMARK   39  A    between atoms: CA_92  and  CB_95 
REMARK       I    between atoms: C_93  and  N_103 
REMARK   40  A    between atoms: CB_95  and  CG_96 
REMARK   41  A    between atoms: N_103  and  CA_104 
REMARK   42  A    between atoms: CA_104  and  C_105 
REMARK   43  A    between atoms: CA_104  and  CB_107 
REMARK       I    between atoms: C_105  and  N_111 
REMARK   44  A    between atoms: N_111  and  CA_112 
REMARK   45  A    between atoms: CA_112  and  C_113 
REMARK   46  A    between atoms: CA_112  and  CB_115 
REMARK       I    between atoms: C_113  and  N_123 
REMARK   47  A    between atoms: CB_115  and  CG_116 
REMARK   48  A    between atoms: CG_116  and  CD_117 
REMARK       I    between atoms: CD_117  and  NE2_118 
REMARK   49  A    between atoms: N_123  and  CA_124 
REMARK   50  A    between atoms: CA_124  and  C_125 
REMARK   51  A    between atoms: CA_124  and  CB_127 
REMARK       I    between atoms: C_125  and  N_140 
REMARK   52  A    between atoms: CB_127  and  CG_128 
REMARK   53  A    between atoms: CG_128  and  CD_129 
REMARK   54  A    between atoms: CD_129  and  NE_130 
REMARK       I    between atoms: NE_130  and  CZ_131 
REMARK       I    between atoms: CZ_131  and  NH1_132 
REMARK       I    between atoms: CZ_131  and  NH2_133 
REMARK   55  A    between atoms: N_140  and  CA_141 
REMARK   56  A    between atoms: CA_141  and  C_142 
REMARK   57  A    between atoms: CA_141  and  CB_144 
REMARK       I    between atoms: C_142  and  N_148 
REMARK   58  A    between atoms: N_148  and  CA_149 
REMARK   59  A    between atoms: CA_149  and  C_150 
REMARK   60  A    between atoms: CA_149  and  CB_152 
REMARK       I    between atoms: C_150  and  N_157 
REMARK   61  A    between atoms: CB_152  and  CG_153 
REMARK   62  A    between atoms: CG_153  and  SD_154 
REMARK   63  A    between atoms: N_157  and  CA_158 
REMARK   64  A    between atoms: CA_158  and  C_159 
REMARK   65  A    between atoms: CA_158  and  CB_161 
REMARK   66  A    between atoms: CB_161  and  CG_162 
REMARK   67  A    between atoms: CG_162  and  CD_163 
REMARK   68  A    between atoms: CD_163  and  NE_164 
REMARK       I    between atoms: NE_164  and  CZ_165 
REMARK       I    between atoms: CZ_165  and  NH1_166 
ROOT
ATOM      1  CA  GLU d   9    1272.478 371.451-1269.497  0.00  0.00     0.177 C 
ENDROOT
BRANCH   1   2
ATOM      2  N   GLU d   9    1271.175 370.793-1269.553  0.00  0.00    -0.346 N 
ATOM      3  C   TRP d   8    1270.495 370.843-1270.648  0.00  0.00     0.241 C 
ATOM      4  O   TRP d   8    1270.964 371.443-1271.614  0.00  0.00    -0.271 OA
ATOM      5  H   GLU d   9    1270.812 370.306-1268.746  0.00  0.00     0.163 HD
BRANCH   3   6
ATOM      6  CA  TRP d   8    1269.148 370.163-1270.705  0.00  0.00     0.181 C 
BRANCH   6   7
ATOM      7  N   TRP d   8    1269.218 368.813-1270.153  0.00  0.00    -0.346 N 
ATOM      8  C   LEU d   7    1270.056 367.973-1270.659  0.00  0.00     0.241 C 
ATOM      9  O   LEU d   7    1270.776 368.336-1271.601  0.00  0.00    -0.271 OA
ATOM     10  H   TRP d   8    1268.621 368.542-1269.385  0.00  0.00     0.163 HD
BRANCH   8  11
ATOM     11  CA  LEU d   7    1270.128 366.578-1270.087  0.00  0.00     0.177 C 
BRANCH  11  12
ATOM     12  N   LEU d   7    1270.183 366.613-1268.629  0.00  0.00    -0.346 N 
ATOM     13  C   ILE d   6    1271.129 367.277-1268.055  0.00  0.00     0.241 C 
ATOM     14  O   ILE d   6    1271.964 367.865-1268.759  0.00  0.00    -0.271 OA
ATOM     15  H   LEU d   7    1269.491 366.126-1268.077  0.00  0.00     0.163 HD
BRANCH  13  16
ATOM     16  CA  ILE d   6    1271.187 367.314-1266.547  0.00  0.00     0.180 C 
BRANCH  16  17
ATOM     17  N   ILE d   6    1269.873 367.609-1265.981  0.00  0.00    -0.346 N 
ATOM     18  C   SER d   5    1269.269 368.692-1266.335  0.00  0.00     0.243 C 
ATOM     19  O   SER d   5    1269.816 369.445-1267.140  0.00  0.00    -0.271 OA
ATOM     20  H   ILE d   6    1269.445 366.974-1265.322  0.00  0.00     0.163 HD
BRANCH  18  21
ATOM     21  CA  SER d   5    1267.910 368.997-1265.749  0.00  0.00     0.200 C 
BRANCH  21  22
ATOM     22  N   SER d   5    1267.040 367.826-1265.807  0.00  0.00    -0.344 N 
ATOM     23  C   GLU d   4    1266.813 367.273-1266.950  0.00  0.00     0.241 C 
ATOM     24  O   GLU d   4    1267.339 367.753-1267.965  0.00  0.00    -0.271 OA
ATOM     25  H   SER d   5    1266.624 367.454-1264.966  0.00  0.00     0.163 HD
BRANCH  23  26
ATOM     26  CA  GLU d   4    1265.914 366.062-1267.012  0.00  0.00     0.177 C 
BRANCH  26  27
ATOM     27  N   GLU d   4    1266.274 365.091-1265.982  0.00  0.00    -0.346 N 
ATOM     28  C   PRO d   3    1267.479 364.631-1265.950  0.00  0.00     0.241 C 
ATOM     29  O   PRO d   3    1268.302 365.014-1266.781  0.00  0.00    -0.271 OA
ATOM     30  H   GLU d   4    1265.590 364.784-1265.305  0.00  0.00     0.163 HD
BRANCH  28  31
ATOM     31  CA  PRO d   3    1267.877 363.607-1264.873  0.00  0.00     0.179 C 
ATOM     32  N   PRO d   3    1267.425 364.017-1263.551  0.00  0.00    -0.337 N 
ATOM     33  C   ASN d   2    1267.947 365.012-1262.917  0.00  0.00     0.243 C 
ATOM     34  CD  PRO d   3    1266.347 363.224-1263.002  0.00  0.00     0.127 C 
ATOM     35  O   ASN d   2    1268.861 365.642-1263.446  0.00  0.00    -0.271 OA
ATOM     36  CG  PRO d   3    1265.889 362.405-1264.212  0.00  0.00     0.022 C 
ATOM     37  CB  PRO d   3    1267.173 362.253-1265.042  0.00  0.00     0.037 C 
BRANCH  33  38
ATOM     38  CA  ASN d   2    1267.415 365.367-1261.549  0.00  0.00     0.185 C 
BRANCH  38  39
ATOM     39  N   ASN d   2    1265.956 365.406-1261.549  0.00  0.00    -0.346 N 
ATOM     40  C   GLU d   1    1265.351 366.192-1262.374  0.00  0.00     0.242 C 
ATOM     41  O   GLU d   1    1266.027 366.891-1263.142  0.00  0.00    -0.271 OA
ATOM     42  H   ASN d   2    1265.428 364.826-1260.912  0.00  0.00     0.163 HD
BRANCH  40  43
ATOM     43  CA  GLU d   1    1263.842 366.232-1262.374  0.00  0.00     0.191 C 
BRANCH  43  44
ATOM     44  N   GLU d   1    1263.283 364.883-1262.374  0.00  0.00    -0.326 NA
ATOM     45  H   GLU d   1    1263.910 364.004-1262.374  0.00  0.00     0.180 HD
ENDBRANCH  43  44
BRANCH  43  46
ATOM     46  CB  GLU d   1    1263.319 367.017-1261.137  0.00  0.00     0.047 C 
BRANCH  46  47
ATOM     47  CG  GLU d   1    1263.794 368.502-1261.026  0.00  0.00     0.116 C 
BRANCH  47  48
ATOM     48  CD  GLU d   1    1263.370 369.306-1259.811  0.00  0.00     0.172 C 
ATOM     49  OE1 GLU d   1    1262.642 368.804-1258.933  0.00  0.00    -0.648 OA
ATOM     50  OE2 GLU d   1    1263.800 370.476-1259.739  0.00  0.00    -0.648 OA
ENDBRANCH  47  48
ENDBRANCH  46  47
ENDBRANCH  43  46
ENDBRANCH  40  43
ENDBRANCH  38  39
BRANCH  38  51
ATOM     51  CB  ASN d   2    1267.907 364.344-1260.484  0.00  0.00     0.137 C 
BRANCH  51  52
ATOM     52  CG  ASN d   2    1267.444 364.568-1259.041  0.00  0.00     0.217 C 
ATOM     53  ND2 ASN d   2    1268.039 365.483-1258.323  0.00  0.00    -0.370 N 
ATOM     54 21HD ASN d   2    1267.558 365.656-1257.436  0.00  0.00     0.159 HD
ATOM     55 22HD ASN d   2    1268.740 366.055-1258.792  0.00  0.00     0.159 HD
ATOM     56  OD1 ASN d   2    1266.524 363.934-1258.547  0.00  0.00    -0.274 OA
ENDBRANCH  51  52
ENDBRANCH  38  51
ENDBRANCH  33  38
ENDBRANCH  28  31
ENDBRANCH  26  27
BRANCH  26  57
ATOM     57  CB  GLU d   4    1264.425 366.481-1266.841  0.00  0.00     0.045 C 
BRANCH  57  58
ATOM     58  CG  GLU d   4    1263.877 367.484-1267.907  0.00  0.00     0.116 C 
BRANCH  58  59
ATOM     59  CD  GLU d   4    1262.451 367.981-1267.763  0.00  0.00     0.172 C 
ATOM     60  OE1 GLU d   4    1261.724 367.582-1266.832  0.00  0.00    -0.648 OA
ATOM     61  OE2 GLU d   4    1262.061 368.810-1268.611  0.00  0.00    -0.648 OA
ENDBRANCH  58  59
ENDBRANCH  57  58
ENDBRANCH  26  57
ENDBRANCH  23  26
ENDBRANCH  21  22
BRANCH  21  62
ATOM     62  CB  SER d   5    1268.021 369.529-1264.298  0.00  0.00     0.199 C 
BRANCH  62  63
ATOM     63  OG  SER d   5    1268.753 368.650-1263.438  0.00  0.00    -0.398 OA
ATOM     64  HG  SER d   5    1268.265 367.825-1263.387  0.00  0.00     0.209 HD
ENDBRANCH  62  63
ENDBRANCH  21  62
ENDBRANCH  18  21
ENDBRANCH  16  17
BRANCH  16  65
ATOM     65  CB  ILE d   6    1271.786 365.978-1265.947  0.00  0.00     0.013 C 
ATOM     66  CG2 ILE d   6    1273.228 365.677-1266.463  0.00  0.00     0.012 C 
BRANCH  65  67
ATOM     67  CG1 ILE d   6    1271.806 365.916-1264.386  0.00  0.00     0.002 C 
ATOM     68  CD1 ILE d   6    1272.076 364.526-1263.772  0.00  0.00     0.005 C 
ENDBRANCH  65  67
ENDBRANCH  16  65
ENDBRANCH  13  16
ENDBRANCH  11  12
BRANCH  11  69
ATOM     69  CB  LEU d   7    1268.925 365.717-1270.568  0.00  0.00     0.038 C 
BRANCH  69  70
ATOM     70  CG  LEU d   7    1268.852 364.238-1270.101  0.00  0.00    -0.020 C 
ATOM     71  CD1 LEU d   7    1267.663 363.532-1270.767  0.00  0.00     0.009 C 
ATOM     72  CD2 LEU d   7    1270.146 363.459-1270.393  0.00  0.00     0.009 C 
ENDBRANCH  69  70
ENDBRANCH  11  69
ENDBRANCH   8  11
ENDBRANCH   6   7
BRANCH   6  73
ATOM     73  CB  TRP d   8    1268.107 370.989-1269.899  0.00  0.00     0.075 C 
BRANCH  73  74
ATOM     74  CG  TRP d   8    1266.660 370.507-1270.037  0.00  0.00    -0.028 A 
ATOM     75  CD2 TRP d   8    1265.783 370.723-1271.080  0.00  0.00    -0.002 A 
ATOM     76  CE3 TRP d   8    1265.916 371.464-1272.283  0.00  0.00     0.014 A 
ATOM     77  CE2 TRP d   8    1264.592 370.009-1270.801  0.00  0.00     0.042 A 
ATOM     78  CZ3 TRP d   8    1264.839 371.485-1273.169  0.00  0.00     0.001 A 
ATOM     79  CH2 TRP d   8    1263.656 370.786-1272.891  0.00  0.00     0.002 A 
ATOM     80  CZ2 TRP d   8    1263.518 370.040-1271.718  0.00  0.00     0.030 A 
ATOM     81  NE1 TRP d   8    1264.693 369.337-1269.592  0.00  0.00    -0.365 N 
ATOM     82  CD1 TRP d   8    1265.987 369.657-1269.136  0.00  0.00     0.096 A 
ATOM     83  1HE TRP d   8    1264.004 368.712-1269.160  0.00  0.00     0.165 HD
ENDBRANCH  73  74
ENDBRANCH   6  73
ENDBRANCH   3   6
ENDBRANCH   1   2
BRANCH   1  84
ATOM     84  C   GLU d   9    1273.396 370.923-1270.573  0.00  0.00     0.241 C 
ATOM     85  O   GLU d   9    1274.060 371.678-1271.299  0.00  0.00    -0.271 OA
ATOM     86  N   HIS d  10    1273.493 369.648-1270.743  0.00  0.00    -0.346 N 
ATOM     87  H   HIS d  10    1272.962 369.013-1270.165  0.00  0.00     0.163 HD
BRANCH  86  88
ATOM     88  CA  HIS d  10    1274.381 369.137-1271.784  0.00  0.00     0.182 C 
BRANCH  88  89
ATOM     89  C   HIS d  10    1274.014 369.702-1273.135  0.00  0.00     0.241 C 
ATOM     90  O   HIS d  10    1274.866 370.167-1273.906  0.00  0.00    -0.271 OA
ATOM     91  N   VAL d  11    1272.776 369.701-1273.498  0.00  0.00    -0.346 N 
ATOM     92  H   VAL d  11    1272.063 369.328-1272.887  0.00  0.00     0.163 HD
BRANCH  91  93
ATOM     93  CA  VAL d  11    1272.421 370.247-1274.804  0.00  0.00     0.180 C 
BRANCH  93  94
ATOM     94  C   VAL d  11    1272.885 371.678-1274.937  0.00  0.00     0.241 C 
ATOM     95  O   VAL d  11    1273.486 372.084-1275.940  0.00  0.00    -0.271 OA
ATOM     96  N   GLN d  12    1272.648 372.503-1273.974  0.00  0.00    -0.346 N 
ATOM     97  H   GLN d  12    1272.159 372.197-1273.145  0.00  0.00     0.163 HD
BRANCH  96  98
ATOM     98  CA  GLN d  12    1273.096 373.886-1274.101  0.00  0.00     0.177 C 
BRANCH  98  99
ATOM     99  C   GLN d  12    1274.586 373.954-1274.339  0.00  0.00     0.241 C 
ATOM    100  O   GLN d  12    1275.073 374.663-1275.217  0.00  0.00    -0.271 OA
ATOM    101  N   ARG d  13    1275.371 373.247-1273.598  0.00  0.00    -0.346 N 
ATOM    102  H   ARG d  13    1274.995 372.657-1272.870  0.00  0.00     0.163 HD
BRANCH 101 103
ATOM    103  CA  ARG d  13    1276.811 373.314-1273.829  0.00  0.00     0.176 C 
BRANCH 103 104
ATOM    104  C   ARG d  13    1277.147 372.943-1275.254  0.00  0.00     0.241 C 
ATOM    105  O   ARG d  13    1277.915 373.615-1275.938  0.00  0.00    -0.271 OA
ATOM    106  N   VAL d  14    1276.611 371.889-1275.769  0.00  0.00    -0.346 N 
ATOM    107  H   VAL d  14    1275.977 371.320-1275.227  0.00  0.00     0.163 HD
BRANCH 106 108
ATOM    108  CA  VAL d  14    1276.936 371.530-1277.146  0.00  0.00     0.180 C 
BRANCH 108 109
ATOM    109  C   VAL d  14    1276.605 372.660-1278.092  0.00  0.00     0.241 C 
ATOM    110  O   VAL d  14    1277.399 373.042-1278.961  0.00  0.00    -0.271 OA
ATOM    111  N   MET d  15    1275.461 373.246-1277.990  0.00  0.00    -0.346 N 
ATOM    112  H   MET d  15    1274.796 372.953-1277.288  0.00  0.00     0.163 HD
BRANCH 111 113
ATOM    113  CA  MET d  15    1275.140 374.339-1278.903  0.00  0.00     0.177 C 
BRANCH 113 114
ATOM    114  C   MET d  15    1276.170 375.439-1278.814  0.00  0.00     0.241 C 
ATOM    115  O   MET d  15    1276.672 375.950-1279.827  0.00  0.00    -0.271 OA
ATOM    116  N   ARG d  16    1276.538 375.860-1277.652  0.00  0.00    -0.347 N 
ATOM    117  H   ARG d  16    1276.144 375.459-1276.813  0.00  0.00     0.163 HD
BRANCH 116 118
ATOM    118  CA  ARG d  16    1277.535 376.924-1277.568  0.00  0.00     0.162 C 
BRANCH 118 119
ATOM    119  C   ARG d  16    1278.806 376.531-1278.284  0.00  0.00     0.219 C 
ATOM    120  O   ARG d  16    1278.920 375.455-1278.866  0.00  0.00    -0.287 OA
ENDBRANCH 118 119
BRANCH 118 121
ATOM    121  CB  ARG d  16    1277.804 377.241-1276.069  0.00  0.00     0.035 C 
BRANCH 121 122
ATOM    122  CG  ARG d  16    1278.629 378.530-1275.796  0.00  0.00     0.023 C 
BRANCH 122 123
ATOM    123  CD  ARG d  16    1278.878 378.748-1274.294  0.00  0.00     0.138 C 
BRANCH 123 124
ATOM    124  NE  ARG d  16    1279.654 380.007-1274.093  0.00  0.00    -0.227 N 
ATOM    125  CZ  ARG d  16    1280.045 380.489-1272.917  0.00  0.00     0.665 C 
ATOM    126  NH1 ARG d  16    1279.798 379.904-1271.779  0.00  0.00    -0.235 N 
ATOM    127  NH2 ARG d  16    1280.709 381.602-1272.898  0.00  0.00    -0.235 N 
ATOM    128 11HH ARG d  16    1279.272 379.031-1271.864  0.00  0.00     0.174 HD
ATOM    129 12HH ARG d  16    1280.132 380.340-1270.917  0.00  0.00     0.174 HD
ATOM    130 21HH ARG d  16    1280.895 382.046-1273.799  0.00  0.00     0.174 HD
ATOM    131 22HH ARG d  16    1280.999 381.957-1271.985  0.00  0.00     0.174 HD
ATOM    132  HE  ARG d  16    1279.932 380.589-1274.890  0.00  0.00     0.177 HD
ENDBRANCH 123 124
ENDBRANCH 122 123
ENDBRANCH 121 122
ENDBRANCH 118 121
ENDBRANCH 116 118
ENDBRANCH 113 114
BRANCH 113 133
ATOM    133  CB  MET d  15    1273.719 374.884-1278.593  0.00  0.00     0.045 C 
BRANCH 133 134
ATOM    134  CG  MET d  15    1272.557 373.886-1278.786  0.00  0.00     0.076 C 
BRANCH 134 135
ATOM    135  SD  MET d  15    1270.983 374.751-1278.671  0.00  0.00    -0.173 SA
ATOM    136  CE  MET d  15    1269.902 373.321-1278.535  0.00  0.00     0.089 C 
ENDBRANCH 134 135
ENDBRANCH 133 134
ENDBRANCH 113 133
ENDBRANCH 111 113
ENDBRANCH 108 109
BRANCH 108 137
ATOM    137  CB  VAL d  14    1276.164 370.213-1277.554  0.00  0.00     0.009 C 
ATOM    138  CG1 VAL d  14    1276.253 369.795-1279.047  0.00  0.00     0.012 C 
ATOM    139  CG2 VAL d  14    1276.596 368.960-1276.754  0.00  0.00     0.012 C 
ENDBRANCH 108 137
ENDBRANCH 106 108
ENDBRANCH 103 104
BRANCH 103 140
ATOM    140  CB  ARG d  13    1277.525 372.375-1272.815  0.00  0.00     0.036 C 
BRANCH 140 141
ATOM    141  CG  ARG d  13    1279.069 372.528-1272.734  0.00  0.00     0.023 C 
BRANCH 141 142
ATOM    142  CD  ARG d  13    1279.697 371.540-1271.737  0.00  0.00     0.138 C 
BRANCH 142 143
ATOM    143  NE  ARG d  13    1281.174 371.748-1271.687  0.00  0.00    -0.227 N 
ATOM    144  CZ  ARG d  13    1282.022 371.056-1270.932  0.00  0.00     0.665 C 
ATOM    145  NH1 ARG d  13    1281.657 370.091-1270.135  0.00  0.00    -0.235 N 
ATOM    146  NH2 ARG d  13    1283.281 371.356-1270.988  0.00  0.00    -0.235 N 
ATOM    147 11HH ARG d  13    1280.652 369.905-1270.138  0.00  0.00     0.174 HD
ATOM    148 12HH ARG d  13    1282.371 369.608-1269.586  0.00  0.00     0.174 HD
ATOM    149 21HH ARG d  13    1283.549 372.114-1271.619  0.00  0.00     0.174 HD
ATOM    150 22HH ARG d  13    1283.917 370.814-1270.400  0.00  0.00     0.174 HD
ATOM    151  HE  ARG d  13    1281.625 372.471-1272.257  0.00  0.00     0.177 HD
ENDBRANCH 142 143
ENDBRANCH 141 142
ENDBRANCH 140 141
ENDBRANCH 103 140
ENDBRANCH 101 103
ENDBRANCH  98  99
BRANCH  98 152
ATOM    152  CB  GLN d  12    1272.705 374.653-1272.818  0.00  0.00     0.044 C 
BRANCH 152 153
ATOM    153  CG  GLN d  12    1273.064 376.175-1272.786  0.00  0.00     0.105 C 
BRANCH 153 154
ATOM    154  CD  GLN d  12    1272.762 376.988-1271.521  0.00  0.00     0.215 C 
ATOM    155  NE2 GLN d  12    1272.195 376.411-1270.492  0.00  0.00    -0.370 N 
ATOM    156 21HE GLN d  12    1272.088 377.006-1269.669  0.00  0.00     0.159 HD
ATOM    157 22HE GLN d  12    1272.032 375.408-1270.596  0.00  0.00     0.159 HD
ATOM    158  OE1 GLN d  12    1273.064 378.169-1271.443  0.00  0.00    -0.274 OA
ENDBRANCH 153 154
ENDBRANCH 152 153
ENDBRANCH  98 152
ENDBRANCH  96  98
ENDBRANCH  93  94
BRANCH  93 159
ATOM    159  CB  VAL d  11    1270.860 370.140-1275.024  0.00  0.00     0.009 C 
ATOM    160  CG1 VAL d  11    1270.291 370.844-1276.286  0.00  0.00     0.012 C 
ATOM    161  CG2 VAL d  11    1270.336 368.686-1275.097  0.00  0.00     0.012 C 
ENDBRANCH  93 159
ENDBRANCH  91  93
ENDBRANCH  88  89
BRANCH  88 162
ATOM    162  CB  HIS d  10    1274.217 367.609-1271.779  0.00  0.00     0.095 C 
BRANCH 162 163
ATOM    163  CG  HIS d  10    1275.503 366.898-1271.471  0.00  0.00     0.053 A 
ATOM    164  CD2 HIS d  10    1275.884 366.563-1270.179  0.00  0.00     0.116 A 
ATOM    165  NE2 HIS d  10    1277.099 365.932-1270.245  0.00  0.00    -0.359 N 
ATOM    166  CE1 HIS d  10    1277.362 365.935-1271.581  0.00  0.00     0.207 A 
ATOM    167  2HE HIS d  10    1277.666 365.554-1269.472  0.00  0.00     0.166 HD
ATOM    168  ND1 HIS d  10    1276.455 366.493-1272.404  0.00  0.00    -0.247 NA
ENDBRANCH 162 163
ENDBRANCH  88 162
ENDBRANCH  86  88
ENDBRANCH   1  84
BRANCH   1 169
ATOM    169  CB  GLU d   9    1273.112 371.243-1268.092  0.00  0.00     0.045 C 
BRANCH 169 170
ATOM    170  CG  GLU d   9    1274.494 371.935-1267.863  0.00  0.00     0.116 C 
BRANCH 170 171
ATOM    171  CD  GLU d   9    1275.196 371.722-1266.535  0.00  0.00     0.172 C 
ATOM    172  OE1 GLU d   9    1274.675 371.030-1265.638  0.00  0.00    -0.648 OA
ATOM    173  OE2 GLU d   9    1276.315 372.259-1266.403  0.00  0.00    -0.648 OA
ENDBRANCH 170 171
ENDBRANCH 169 170
ENDBRANCH   1 169
TORSDOF 68
