@<TRIPOS>MOLECULE
9-9
271 273 16              
SMALL
USER_CHARGES
@<TRIPOS>ATOM
1	   N	1418.810	415.730	-1431.039	N.3	1	GLU1	-0.516	
2	  CA	1419.369	417.079	-1431.039	C.3	1	GLU1	0.040	
3	   C	1420.878	417.039	-1431.039	C.2	1	GLU1	0.537	
4	   O	1421.554	417.738	-1431.807	O.2	1	GLU1	-0.582	
5	  CB	1418.846	417.864	-1429.802	C.3	1	GLU1	0.056	
6	  CG	1419.321	419.349	-1429.691	C.3	1	GLU1	0.014	
7	  CD	1418.897	420.153	-1428.476	C.2	1	GLU1	0.805	
8	 OE1	1418.169	419.651	-1427.598	O.co2	1	GLU1	-0.819	
9	 OE2	1419.327	421.323	-1428.404	O.co2	1	GLU1	-0.819	
10	   H	1419.437	414.851	-1431.039	 H	1	GLU1	0.294	
11	  HA	1419.043	417.597	-1431.959	 H	1	GLU1	0.111	
12	 2HB	1419.135	417.333	-1428.872	 H	1	GLU1	-0.017	
13	 3HB	1417.739	417.854	-1429.789	 H	1	GLU1	-0.017	
14	 2HG	1419.011	419.934	-1430.572	 H	1	GLU1	-0.043	
15	 3HG	1420.421	419.416	-1429.662	 H	1	GLU1	-0.043	
16	   N	1421.483	416.253	-1430.214	N.am	2	ASN2	-0.416	
17	  CA	1422.942	416.214	-1430.214	C.3	2	ASN2	0.014	
18	   C	1423.474	415.859	-1431.582	C.2	2	ASN2	0.597	
19	   O	1424.388	416.489	-1432.111	O.2	2	ASN2	-0.568	
20	  CB	1423.434	415.191	-1429.149	C.3	2	ASN2	-0.204	
21	  CG	1422.971	415.415	-1427.706	C.2	2	ASN2	0.713	
22	 ND2	1423.566	416.330	-1426.988	N.pl3	2	ASN2	-0.919	
23	 OD1	1422.051	414.781	-1427.212	O.2	2	ASN2	-0.593	
24	   H	1420.955	415.673	-1429.577	 H	2	ASN2	0.272	
25	  HA	1423.320	417.224	-1429.968	 H	2	ASN2	0.105	
26	 2HB	1424.539	415.132	-1429.153	 H	2	ASN2	0.080	
27	 3HB	1423.105	414.173	-1429.435	 H	2	ASN2	0.080	
28	1HD2	1423.085	416.503	-1426.101	 H	2	ASN2	0.420	
29	2HD2	1424.267	416.902	-1427.457	 H	2	ASN2	0.420	
30	   N	1422.952	414.863	-1432.216	N.am	3	PRO3	-0.255	
31	  CA	1423.404	414.454	-1433.538	C.3	3	PRO3	-0.027	
32	   C	1423.005	415.478	-1434.615	C.2	3	PRO3	0.590	
33	   O	1423.829	415.861	-1435.446	O.2	3	PRO3	-0.575	
34	  CB	1422.700	413.099	-1433.707	C.3	3	PRO3	-0.007	
35	  CG	1421.416	413.252	-1432.877	C.3	3	PRO3	0.019	
36	  CD	1421.874	414.070	-1431.667	C.3	3	PRO3	0.019	
37	  HA	1424.490	414.334	-1433.552	 H	3	PRO3	0.064	
38	 2HB	1423.323	412.318	-1433.266	 H	3	PRO3	0.025	
39	 3HB	1422.501	412.851	-1434.753	 H	3	PRO3	0.025	
40	 2HG	1420.989	412.289	-1432.586	 H	3	PRO3	0.021	
41	 3HG	1420.679	413.823	-1433.444	 H	3	PRO3	0.021	
42	 2HD	1422.263	413.421	-1430.880	 H	3	PRO3	0.039	
43	 3HD	1421.078	414.706	-1431.274	 H	3	PRO3	0.039	
44	   N	1421.801	415.938	-1434.647	N.am	4	GLU4	-0.516	
45	  CA	1421.441	416.909	-1435.677	C.3	4	GLU4	0.040	
46	   C	1422.340	418.120	-1435.615	C.2	4	GLU4	0.537	
47	   O	1422.866	418.600	-1436.630	O.2	4	GLU4	-0.582	
48	  CB	1419.952	417.327	-1435.506	C.3	4	GLU4	0.056	
49	  CG	1419.404	418.331	-1436.572	C.3	4	GLU4	0.014	
50	  CD	1417.978	418.828	-1436.428	C.2	4	GLU4	0.805	
51	 OE1	1417.251	418.429	-1435.497	O.co2	4	GLU4	-0.819	
52	 OE2	1417.588	419.657	-1437.276	O.co2	4	GLU4	-0.819	
53	   H	1421.117	415.631	-1433.970	 H	4	GLU4	0.294	
54	  HA	1421.572	416.438	-1436.668	 H	4	GLU4	0.111	
55	 2HB	1419.800	417.767	-1434.499	 H	4	GLU4	-0.017	
56	 3HB	1419.305	416.429	-1435.512	 H	4	GLU4	-0.017	
57	 2HG	1419.486	417.916	-1437.589	 H	4	GLU4	-0.043	
58	 3HG	1419.992	419.263	-1436.583	 H	4	GLU4	-0.043	
59	   N	1422.567	418.673	-1434.472	N.am	5	SER5	-0.416	
60	  CA	1423.437	419.844	-1434.414	C.3	5	SER5	-0.025	
61	   C	1424.796	419.539	-1435.000	C.2	5	SER5	0.597	
62	   O	1425.343	420.292	-1435.805	O.2	5	SER5	-0.568	
63	  CB	1423.548	420.376	-1432.963	C.3	5	SER5	0.212	
64	  OG	1424.280	419.497	-1432.103	O.3	5	SER5	-0.655	
65	   H	1422.151	418.301	-1433.631	 H	5	SER5	0.272	
66	  HA	1422.987	420.634	-1435.043	 H	5	SER5	0.084	
67	 2HB	1422.549	420.570	-1432.530	 H	5	SER5	0.035	
68	 3HB	1424.054	421.362	-1432.966	 H	5	SER5	0.035	
69	  HG	1423.792	418.672	-1432.052	 H	5	SER5	0.428	
70	   N	1425.400	418.456	-1434.646	N.am	6	ILE6	-0.416	
71	  CA	1426.714	418.161	-1435.212	C.3	6	ILE6	-0.060	
72	   C	1426.656	418.124	-1436.720	C.2	6	ILE6	0.597	
73	   O	1427.491	418.711	-1437.424	O.2	6	ILE6	-0.568	
74	  CB	1427.313	416.825	-1434.612	C.3	6	ILE6	0.130	
75	 CG1	1427.333	416.762	-1433.051	C.3	6	ILE6	-0.043	
76	 CG2	1428.755	416.523	-1435.128	C.3	6	ILE6	-0.320	
77	 CD1	1427.603	415.373	-1432.437	C.3	6	ILE6	-0.066	
78	   H	1424.972	417.821	-1433.987	 H	6	ILE6	0.272	
79	  HA	1427.388	418.995	-1434.944	 H	6	ILE6	0.087	
80	  HB	1426.656	415.999	-1434.957	 H	6	ILE6	0.019	
81	2HG1	1426.351	417.082	-1432.656	 H	6	ILE6	0.024	
82	3HG1	1428.049	417.504	-1432.647	 H	6	ILE6	0.024	
83	1HG2	1428.813	416.430	-1436.226	 H	6	ILE6	0.088	
84	2HG2	1429.477	417.305	-1434.826	 H	6	ILE6	0.088	
85	3HG2	1429.145	415.561	-1434.749	 H	6	ILE6	0.088	
86	1HD1	1426.875	414.619	-1432.791	 H	6	ILE6	0.019	
87	2HD1	1428.614	414.994	-1432.672	 H	6	ILE6	0.019	
88	3HD1	1427.527	415.403	-1431.334	 H	6	ILE6	0.019	
89	   N	1425.710	417.460	-1437.294	N.am	7	LEU7	-0.416	
90	  CA	1425.655	417.424	-1438.752	C.3	7	LEU7	-0.052	
91	   C	1425.583	418.820	-1439.324	C.2	7	LEU7	0.597	
92	   O	1426.303	419.183	-1440.266	O.2	7	LEU7	-0.568	
93	  CB	1424.452	416.564	-1439.233	C.3	7	LEU7	-0.110	
94	  CG	1424.379	415.084	-1438.766	C.3	7	LEU7	0.353	
95	 CD1	1423.190	414.379	-1439.432	C.3	7	LEU7	-0.412	
96	 CD2	1425.673	414.305	-1439.058	C.3	7	LEU7	-0.412	
97	   H	1425.018	416.973	-1436.742	 H	7	LEU7	0.272	
98	  HA	1426.597	416.984	-1439.127	 H	7	LEU7	0.092	
99	 2HB	1424.429	416.580	-1440.340	 H	7	LEU7	0.046	
100	 3HB	1423.512	417.067	-1438.928	 H	7	LEU7	0.046	
101	  HG	1424.210	415.076	-1437.669	 H	7	LEU7	-0.036	
102	1HD1	1422.232	414.888	-1439.209	 H	7	LEU7	0.100	
103	2HD1	1423.289	414.338	-1440.533	 H	7	LEU7	0.100	
104	3HD1	1423.083	413.337	-1439.076	 H	7	LEU7	0.100	
105	1HD2	1425.948	414.336	-1440.128	 H	7	LEU7	0.100	
106	2HD2	1426.526	414.717	-1438.487	 H	7	LEU7	0.100	
107	3HD2	1425.592	413.243	-1438.762	 H	7	LEU7	0.100	
108	   N	1424.745	419.660	-1438.818	N.am	8	ASP8	-0.516	
109	  CA	1424.675	421.010	-1439.371	C.3	8	ASP8	0.038	
110	   C	1426.021	421.690	-1439.313	C.2	8	ASP8	0.537	
111	   O	1426.494	422.295	-1440.288	O.2	8	ASP8	-0.582	
112	  CB	1423.597	421.849	-1438.629	C.3	8	ASP8	-0.030	
113	  CG	1423.378	423.269	-1439.169	C.2	8	ASP8	0.799	
114	 OD1	1423.442	423.469	-1440.399	O.co2	8	ASP8	-0.801	
115	 OD2	1423.186	424.195	-1438.353	O.co2	8	ASP8	-0.801	
116	   H	1424.148	419.389	-1438.050	 H	8	ASP8	0.294	
117	  HA	1424.392	420.932	-1440.438	 H	8	ASP8	0.088	
118	 2HB	1423.854	421.931	-1437.557	 H	8	ASP8	-0.012	
119	 3HB	1422.618	421.343	-1438.662	 H	8	ASP8	-0.012	
120	   N	1426.701	421.640	-1438.218	N.am	9	TYR9	-0.416	
121	  CA	1428.004	422.297	-1438.163	C.3	9	TYR9	-0.001	
122	   C	1428.922	421.770	-1439.239	C.2	9	TYR9	0.597	
123	   O	1429.582	422.521	-1439.961	O.2	9	TYR9	-0.568	
124	  CB	1428.690	422.056	-1436.786	C.3	9	TYR9	-0.015	
125	  CG	1427.961	422.597	-1435.550	C.2	9	TYR9	-0.001	
126	 CD1	1428.015	423.957	-1435.228	C.2	9	TYR9	-0.191	
127	 CD2	1427.225	421.725	-1434.741	C.2	9	TYR9	-0.191	
128	 CE1	1427.337	424.438	-1434.112	C.2	9	TYR9	-0.234	
129	 CE2	1426.548	422.208	-1433.625	C.2	9	TYR9	-0.234	
130	  CZ	1426.605	423.564	-1433.311	C.2	9	TYR9	0.323	
131	  OH	1425.939	424.041	-1432.218	O.3	9	TYR9	-0.558	
132	   H	1426.338	421.153	-1437.411	 H	9	TYR9	0.272	
133	  HA	1427.866	423.381	-1438.335	 H	9	TYR9	0.088	
134	 2HB	1429.705	422.499	-1436.794	 H	9	TYR9	0.030	
135	 3HB	1428.883	420.971	-1436.657	 H	9	TYR9	0.030	
136	 1HD	1428.577	424.643	-1435.847	 H	9	TYR9	0.170	
137	 2HD	1427.168	420.673	-1434.985	 H	9	TYR9	0.170	
138	 1HE	1427.373	425.488	-1433.865	 H	9	TYR9	0.166	
139	 2HE	1425.979	421.526	-1433.012	 H	9	TYR9	0.166	
140	  HH	1425.491	423.308	-1431.792	 H	9	TYR9	0.399	
141	   N	1429.018	420.495	-1439.408	N.am	10	HIS10	-0.416	
142	  CA	1429.906	419.984	-1440.449	C.3	10	HIS10	-0.058	
143	   C	1429.539	420.548	-1441.800	C.2	10	HIS10	0.597	
144	   O	1430.391	421.013	-1442.572	O.2	10	HIS10	-0.568	
145	  CB	1429.743	418.455	-1440.444	C.3	10	HIS10	-0.007	
146	  CG	1431.028	417.745	-1440.136	C.2	10	HIS10	0.187	
147	 CD2	1431.410	417.409	-1438.844	C.2	10	HIS10	-0.221	
148	 ND1	1431.980	417.339	-1441.069	N.2	10	HIS10	-0.543	
149	 CE1	1432.887	416.781	-1440.246	C.2	10	HIS10	0.163	
150	 NE2	1432.625	416.778	-1438.911	N.pl3	10	HIS10	-0.280	
151	   H	1428.488	419.859	-1438.830	 H	10	HIS10	0.272	
152	  HA	1430.925	420.341	-1440.224	 H	10	HIS10	0.136	
153	 2HB	1429.377	418.088	-1441.424	 H	10	HIS10	0.037	
154	 3HB	1428.987	418.118	-1439.704	 H	10	HIS10	0.037	
155	 2HD	1430.824	417.625	-1437.955	 H	10	HIS10	0.186	
156	 1HE	1433.778	416.360	-1440.693	 H	10	HIS10	0.144	
157	 2HE	1433.192	416.401	-1438.137	 H	10	HIS10	0.334	
158	   N	1428.301	420.547	-1442.163	N.am	11	VAL11	-0.416	
159	  CA	1427.946	421.093	-1443.469	C.3	11	VAL11	-0.087	
160	   C	1428.410	422.524	-1443.601	C.2	11	VAL11	0.597	
161	   O	1429.010	422.930	-1444.604	O.2	11	VAL11	-0.568	
162	  CB	1426.384	420.986	-1443.688	C.3	11	VAL11	0.299	
163	 CG1	1425.815	421.691	-1444.950	C.3	11	VAL11	-0.319	
164	 CG2	1425.860	419.532	-1443.761	C.3	11	VAL11	-0.319	
165	   H	1427.588	420.174	-1441.552	 H	11	VAL11	0.272	
166	  HA	1428.465	420.511	-1444.252	 H	11	VAL11	0.097	
167	  HB	1425.897	421.466	-1442.812	 H	11	VAL11	-0.030	
168	1HG1	1426.253	421.299	-1445.888	 H	11	VAL11	0.079	
169	2HG1	1424.716	421.583	-1445.032	 H	11	VAL11	0.079	
170	3HG1	1425.993	422.783	-1444.941	 H	11	VAL11	0.079	
171	1HG2	1426.150	418.945	-1442.871	 H	11	VAL11	0.079	
172	2HG2	1424.754	419.495	-1443.804	 H	11	VAL11	0.079	
173	3HG2	1426.241	418.992	-1444.648	 H	11	VAL11	0.079	
174	   N	1428.172	423.350	-1442.639	N.am	12	GLN12	-0.416	
175	  CA	1428.620	424.733	-1442.766	C.3	12	GLN12	-0.003	
176	   C	1430.110	424.801	-1443.004	C.2	12	GLN12	0.597	
177	   O	1430.597	425.509	-1443.882	O.2	12	GLN12	-0.568	
178	  CB	1428.230	425.500	-1441.483	C.3	12	GLN12	-0.004	
179	  CG	1428.589	427.022	-1441.452	C.3	12	GLN12	-0.064	
180	  CD	1428.287	427.835	-1440.186	C.2	12	GLN12	0.695	
181	 NE2	1427.720	427.258	-1439.157	N.pl3	12	GLN12	-0.941	
182	 OE1	1428.588	429.016	-1440.109	O.2	12	GLN12	-0.609	
183	   H	1427.684	423.043	-1441.810	 H	12	GLN12	0.272	
184	  HA	1428.121	425.189	-1443.641	 H	12	GLN12	0.085	
185	 2HB	1428.706	425.000	-1440.614	 H	12	GLN12	0.017	
186	 3HB	1427.140	425.392	-1441.319	 H	12	GLN12	0.017	
187	 2HG	1428.112	427.543	-1442.302	 H	12	GLN12	0.035	
188	 3HG	1429.673	427.164	-1441.617	 H	12	GLN12	0.035	
189	1HE2	1427.613	427.852	-1438.334	 H	12	GLN12	0.425	
190	2HE2	1427.557	426.255	-1439.261	 H	12	GLN12	0.425	
191	   N	1430.895	424.094	-1442.263	N.am	13	ARG13	-0.348	
192	  CA	1432.336	424.160	-1442.495	C.3	13	ARG13	-0.264	
193	   C	1432.671	423.789	-1443.920	C.2	13	ARG13	0.734	
194	   O	1433.440	424.461	-1444.604	O.2	13	ARG13	-0.589	
195	  CB	1433.049	423.221	-1441.481	C.3	13	ARG13	-0.001	
196	  CG	1434.594	423.375	-1441.400	C.3	13	ARG13	0.039	
197	  CD	1435.222	422.387	-1440.403	C.3	13	ARG13	0.049	
198	  NE	1436.699	422.595	-1440.353	N.pl3	13	ARG13	-0.530	
199	  CZ	1437.548	421.903	-1439.598	C.cat	13	ARG13	0.808	
200	 NH1	1437.183	420.938	-1438.801	N.pl3	13	ARG13	-0.863	
201	 NH2	1438.807	422.203	-1439.655	N.pl3	13	ARG13	-0.863	
202	   H	1430.519	423.504	-1441.535	 H	13	ARG13	0.275	
203	  HA	1432.660	425.206	-1442.336	 H	13	ARG13	0.156	
204	 2HB	1432.783	422.171	-1441.720	 H	13	ARG13	0.033	
205	 3HB	1432.624	423.387	-1440.470	 H	13	ARG13	0.033	
206	 2HG	1434.842	424.419	-1441.121	 H	13	ARG13	0.029	
207	 3HG	1435.045	423.219	-1442.402	 H	13	ARG13	0.029	
208	 2HD	1434.978	421.347	-1440.712	 H	13	ARG13	0.069	
209	 3HD	1434.766	422.532	-1439.400	 H	13	ARG13	0.069	
210	  HE	1437.150	423.317	-1440.924	 H	13	ARG13	0.346	
211	1HH1	1436.178	420.752	-1438.804	 H	13	ARG13	0.448	
212	2HH1	1437.896	420.456	-1438.253	 H	13	ARG13	0.448	
213	1HH2	1439.074	422.961	-1440.286	 H	13	ARG13	0.448	
214	2HH2	1439.443	421.661	-1439.067	 H	13	ARG13	0.448	
215	   N	1432.135	422.735	-1444.434	N.am	14	VAL14	-0.416	
216	  CA	1432.460	422.376	-1445.812	C.3	14	VAL14	-0.087	
217	   C	1432.129	423.506	-1446.757	C.2	14	VAL14	0.597	
218	   O	1432.923	423.887	-1447.627	O.2	14	VAL14	-0.568	
219	  CB	1431.688	421.059	-1446.219	C.3	14	VAL14	0.299	
220	 CG1	1431.776	420.641	-1447.712	C.3	14	VAL14	-0.319	
221	 CG2	1432.120	419.806	-1445.419	C.3	14	VAL14	-0.319	
222	   H	1431.501	422.166	-1443.892	 H	14	VAL14	0.272	
223	  HA	1433.548	422.199	-1445.887	 H	14	VAL14	0.097	
224	  HB	1430.611	421.229	-1446.002	 H	14	VAL14	-0.030	
225	1HG1	1432.818	420.464	-1448.042	 H	14	VAL14	0.079	
226	2HG1	1431.204	419.717	-1447.925	 H	14	VAL14	0.079	
227	3HG1	1431.347	421.403	-1448.390	 H	14	VAL14	0.079	
228	1HG2	1432.033	419.965	-1444.328	 H	14	VAL14	0.079	
229	2HG2	1431.485	418.930	-1445.651	 H	14	VAL14	0.079	
230	3HG2	1433.168	419.517	-1445.625	 H	14	VAL14	0.079	
231	   N	1430.984	424.091	-1446.655	N.am	15	MET15	-0.416	
232	  CA	1430.664	425.184	-1447.569	C.3	15	MET15	-0.024	
233	   C	1431.694	426.284	-1447.481	C.2	15	MET15	0.597	
234	   O	1432.196	426.795	-1448.494	O.2	15	MET15	-0.568	
235	  CB	1429.242	425.730	-1447.260	C.3	15	MET15	0.034	
236	  CG	1428.080	424.731	-1447.451	C.3	15	MET15	0.002	
237	  SD	1426.506	425.597	-1447.336	S.3	15	MET15	-0.274	
238	  CE	1425.426	424.167	-1447.200	C.3	15	MET15	-0.054	
239	   H	1430.320	423.798	-1445.953	 H	15	MET15	0.272	
240	  HA	1430.689	424.797	-1448.604	 H	15	MET15	0.088	
241	 2HB	1429.040	426.608	-1447.901	 H	15	MET15	0.024	
242	 3HB	1429.207	426.122	-1446.223	 H	15	MET15	0.024	
243	 2HG	1428.124	423.945	-1446.673	 H	15	MET15	0.044	
244	 3HG	1428.143	424.216	-1448.427	 H	15	MET15	0.044	
245	 1HE	1425.569	423.479	-1448.052	 H	15	MET15	0.068	
246	 2HE	1425.635	423.615	-1446.267	 H	15	MET15	0.068	
247	 3HE	1424.368	424.482	-1447.183	 H	15	MET15	0.068	
248	   N	1432.063	426.705	-1446.319	N.am	16	ARG16	-0.348	
249	  CA	1433.059	427.769	-1446.235	C.3	16	ARG16	-0.264	
250	   C	1434.330	427.377	-1446.952	C.2	16	ARG16	0.734	
251	   O	1434.443	426.300	-1447.533	O.2	16	ARG16	-0.589	
252	  CB	1433.328	428.087	-1444.737	C.3	16	ARG16	-0.001	
253	  CG	1434.153	429.376	-1444.464	C.3	16	ARG16	0.039	
254	  CD	1434.403	429.596	-1442.963	C.3	16	ARG16	0.049	
255	  NE	1435.179	430.855	-1442.762	N.pl3	16	ARG16	-0.530	
256	  CZ	1435.571	431.337	-1441.587	C.cat	16	ARG16	0.808	
257	 NH1	1435.323	430.752	-1440.448	N.pl3	16	ARG16	-0.863	
258	 NH2	1436.234	432.450	-1441.568	N.pl3	16	ARG16	-0.863	
259	   H	1431.668	426.305	-1445.480	 H	16	ARG16	0.275	
260	  HA	1432.650	428.662	-1446.745	 H	16	ARG16	0.156	
261	 2HB	1433.825	427.211	-1444.271	 H	16	ARG16	0.033	
262	 3HB	1432.360	428.168	-1444.203	 H	16	ARG16	0.033	
263	 2HG	1433.623	430.247	-1444.901	 H	16	ARG16	0.029	
264	 3HG	1435.127	429.324	-1444.994	 H	16	ARG16	0.029	
265	 2HD	1434.952	428.721	-1442.550	 H	16	ARG16	0.069	
266	 3HD	1433.431	429.638	-1442.428	 H	16	ARG16	0.069	
267	  HE	1435.458	431.436	-1443.559	 H	16	ARG16	0.346	
268	1HH1	1434.798	429.879	-1440.532	 H	16	ARG16	0.448	
269	2HH1	1435.658	431.188	-1439.587	 H	16	ARG16	0.448	
270	1HH2	1436.420	432.893	-1442.470	 H	16	ARG16	0.448	
271	2HH2	1436.525	432.805	-1440.656	 H	16	ARG16	0.448	
@<TRIPOS>BOND
1 1 2 1
2 1 10 1
3 2 3 1
4 2 5 1
5 2 11 1
6 3 4 2
7 3 16 1
8 5 6 1
9 6 7 1
10 7 8 2
11 7 9 1
12 5 12 1
13 5 13 1
14 6 14 1
15 6 15 1
16 16 17 1
17 16 24 1
18 17 18 1
19 17 20 1
20 17 25 1
21 18 19 2
22 18 30 1
23 20 21 1
24 21 22 1
25 21 23 2
26 20 26 1
27 20 27 1
28 22 28 1
29 22 29 1
30 30 31 1
31 30 36 1
32 31 32 1
33 31 34 1
34 31 37 1
35 32 33 2
36 32 44 1
37 34 35 1
38 35 36 1
39 34 38 1
40 34 39 1
41 35 40 1
42 35 41 1
43 36 42 1
44 36 43 1
45 44 45 1
46 44 53 1
47 45 46 1
48 45 48 1
49 45 54 1
50 46 47 2
51 46 59 1
52 48 49 1
53 49 50 1
54 50 51 2
55 50 52 1
56 48 55 1
57 48 56 1
58 49 57 1
59 49 58 1
60 59 60 1
61 59 65 1
62 60 61 1
63 60 63 1
64 60 66 1
65 61 62 2
66 61 70 1
67 63 64 1
68 63 67 1
69 63 68 1
70 64 69 1
71 70 71 1
72 70 78 1
73 71 72 1
74 71 74 1
75 71 79 1
76 72 73 2
77 72 89 1
78 74 75 1
79 74 76 1
80 75 77 1
81 74 80 1
82 75 81 1
83 75 82 1
84 76 83 1
85 76 84 1
86 76 85 1
87 77 86 1
88 77 87 1
89 77 88 1
90 89 90 1
91 89 97 1
92 90 91 1
93 90 93 1
94 90 98 1
95 91 92 2
96 91 108 1
97 93 94 1
98 94 95 1
99 94 96 1
100 93 99 1
101 93 100 1
102 94 101 1
103 95 102 1
104 95 103 1
105 95 104 1
106 96 105 1
107 96 106 1
108 96 107 1
109 108 109 1
110 108 116 1
111 109 110 1
112 109 112 1
113 109 117 1
114 110 111 2
115 110 120 1
116 112 113 1
117 113 114 2
118 113 115 1
119 112 118 1
120 112 119 1
121 120 121 1
122 120 132 1
123 121 122 1
124 121 124 1
125 121 133 1
126 122 123 2
127 122 141 1
128 124 125 1
129 125 126 2
130 125 127 1
131 127 129 2
132 126 128 1
133 129 130 1
134 128 130 2
135 130 131 1
136 124 134 1
137 124 135 1
138 126 136 1
139 127 137 1
140 128 138 1
141 129 139 1
142 131 140 1
143 141 142 1
144 141 151 1
145 142 143 1
146 142 145 1
147 142 152 1
148 143 144 2
149 143 158 1
150 145 146 1
151 146 147 2
152 147 150 1
153 146 148 1
154 148 149 2
155 149 150 1
156 145 153 1
157 145 154 1
158 147 155 1
159 149 156 1
160 150 157 1
161 158 159 1
162 158 165 1
163 159 160 1
164 159 162 1
165 159 166 1
166 160 161 2
167 160 174 1
168 162 163 1
169 162 164 1
170 162 167 1
171 163 168 1
172 163 169 1
173 163 170 1
174 164 171 1
175 164 172 1
176 164 173 1
177 174 175 1
178 174 183 1
179 175 176 1
180 175 178 1
181 175 184 1
182 176 177 2
183 176 191 1
184 178 179 1
185 179 180 1
186 180 181 1
187 180 182 2
188 178 185 1
189 178 186 1
190 179 187 1
191 179 188 1
192 181 189 1
193 181 190 1
194 191 192 1
195 191 202 1
196 192 193 1
197 192 195 1
198 192 203 1
199 193 194 2
200 193 215 1
201 195 196 1
202 196 197 1
203 197 198 1
204 198 199 1
205 199 200 2
206 199 201 1
207 195 204 1
208 195 205 1
209 196 206 1
210 196 207 1
211 197 208 1
212 197 209 1
213 198 210 1
214 200 211 1
215 200 212 1
216 201 213 1
217 201 214 1
218 215 216 1
219 215 222 1
220 216 217 1
221 216 219 1
222 216 223 1
223 217 218 2
224 217 231 1
225 219 220 1
226 219 221 1
227 219 224 1
228 220 225 1
229 220 226 1
230 220 227 1
231 221 228 1
232 221 229 1
233 221 230 1
234 231 232 1
235 231 239 1
236 232 233 1
237 232 235 1
238 232 240 1
239 233 234 2
240 233 248 1
241 235 236 1
242 236 237 1
243 237 238 1
244 235 241 1
245 235 242 1
246 236 243 1
247 236 244 1
248 238 245 1
249 238 246 1
250 238 247 1
251 248 249 1
252 248 259 1
253 249 250 1
254 249 252 1
255 249 260 1
256 250 251 2
257 252 253 1
258 253 254 1
259 254 255 1
260 255 256 1
261 256 257 2
262 256 258 1
263 252 261 1
264 252 262 1
265 253 263 1
266 253 264 1
267 254 265 1
268 254 266 1
269 255 267 1
270 257 268 1
271 257 269 1
272 258 270 1
273 258 271 1
@<TRIPOS>SUBSTRUCTURE
1	GLU1	1	RESIDUE	1 ****	GLU
2	ASN2	16	RESIDUE	1 ****	ASN
3	PRO3	30	RESIDUE	1 ****	PRO
4	GLU4	44	RESIDUE	1 ****	GLU
5	SER5	59	RESIDUE	1 ****	SER
6	ILE6	70	RESIDUE	1 ****	ILE
7	LEU7	89	RESIDUE	1 ****	LEU
8	ASP8	108	RESIDUE	1 ****	ASP
9	TYR9	120	RESIDUE	1 ****	TYR
10	HIS10	141	RESIDUE	1 ****	HIS
11	VAL11	158	RESIDUE	1 ****	VAL
12	GLN12	174	RESIDUE	1 ****	GLN
13	ARG13	191	RESIDUE	1 ****	ARG
14	VAL14	215	RESIDUE	1 ****	VAL
15	MET15	231	RESIDUE	1 ****	MET
16	ARG16	248	RESIDUE	1 ****	ARG
