@<TRIPOS>MOLECULE
12-7
267 268 16              
SMALL
USER_CHARGES
@<TRIPOS>ATOM
1	   N	1894.957	570.536	-1946.840	N.3	1	GLU1	-0.516	
2	  CA	1895.516	571.885	-1946.840	C.3	1	GLU1	0.040	
3	   C	1897.025	571.845	-1946.840	C.2	1	GLU1	0.537	
4	   O	1897.700	572.544	-1947.609	O.2	1	GLU1	-0.582	
5	  CB	1894.993	572.670	-1945.603	C.3	1	GLU1	0.056	
6	  CG	1895.468	574.155	-1945.492	C.3	1	GLU1	0.014	
7	  CD	1895.044	574.959	-1944.277	C.2	1	GLU1	0.805	
8	 OE1	1894.316	574.457	-1943.399	O.co2	1	GLU1	-0.819	
9	 OE2	1895.474	576.129	-1944.205	O.co2	1	GLU1	-0.819	
10	   H	1895.583	569.657	-1946.840	 H	1	GLU1	0.294	
11	  HA	1895.190	572.403	-1947.760	 H	1	GLU1	0.111	
12	 2HB	1895.281	572.139	-1944.673	 H	1	GLU1	-0.017	
13	 3HB	1893.885	572.660	-1945.590	 H	1	GLU1	-0.017	
14	 2HG	1895.158	574.740	-1946.373	 H	1	GLU1	-0.043	
15	 3HG	1896.568	574.222	-1945.463	 H	1	GLU1	-0.043	
16	   N	1897.629	571.059	-1946.015	N.am	2	ASN2	-0.416	
17	  CA	1899.089	571.020	-1946.015	C.3	2	ASN2	0.014	
18	   C	1899.620	570.665	-1947.384	C.2	2	ASN2	0.597	
19	   O	1900.535	571.295	-1947.912	O.2	2	ASN2	-0.568	
20	  CB	1899.580	569.997	-1944.951	C.3	2	ASN2	-0.204	
21	  CG	1899.117	570.221	-1943.507	C.2	2	ASN2	0.713	
22	 ND2	1899.712	571.136	-1942.789	N.pl3	2	ASN2	-0.919	
23	 OD1	1898.196	569.587	-1943.013	O.2	2	ASN2	-0.593	
24	   H	1897.101	570.479	-1945.379	 H	2	ASN2	0.272	
25	  HA	1899.466	572.030	-1945.770	 H	2	ASN2	0.105	
26	 2HB	1900.685	569.938	-1944.954	 H	2	ASN2	0.080	
27	 3HB	1899.251	568.979	-1945.237	 H	2	ASN2	0.080	
28	1HD2	1899.231	571.309	-1941.903	 H	2	ASN2	0.420	
29	2HD2	1900.413	571.708	-1943.258	 H	2	ASN2	0.420	
30	   N	1899.098	569.670	-1948.018	N.am	3	PRO3	-0.255	
31	  CA	1899.550	569.260	-1949.339	C.3	3	PRO3	-0.027	
32	   C	1899.152	570.284	-1950.416	C.2	3	PRO3	0.590	
33	   O	1899.975	570.667	-1951.248	O.2	3	PRO3	-0.575	
34	  CB	1898.846	567.906	-1949.509	C.3	3	PRO3	-0.007	
35	  CG	1897.562	568.058	-1948.678	C.3	3	PRO3	0.019	
36	  CD	1898.020	568.877	-1947.469	C.3	3	PRO3	0.019	
37	  HA	1900.636	569.141	-1949.353	 H	3	PRO3	0.064	
38	 2HB	1899.469	567.125	-1949.068	 H	3	PRO3	0.025	
39	 3HB	1898.647	567.657	-1950.554	 H	3	PRO3	0.025	
40	 2HG	1897.135	567.096	-1948.387	 H	3	PRO3	0.021	
41	 3HG	1896.825	568.629	-1949.246	 H	3	PRO3	0.021	
42	 2HD	1898.409	568.227	-1946.681	 H	3	PRO3	0.039	
43	 3HD	1897.224	569.513	-1947.076	 H	3	PRO3	0.039	
44	   N	1897.947	570.744	-1950.448	N.am	4	GLU4	-0.516	
45	  CA	1897.587	571.715	-1951.478	C.3	4	GLU4	0.040	
46	   C	1898.486	572.926	-1951.417	C.2	4	GLU4	0.537	
47	   O	1899.013	573.406	-1952.432	O.2	4	GLU4	-0.582	
48	  CB	1896.099	572.134	-1951.308	C.3	4	GLU4	0.056	
49	  CG	1895.551	573.137	-1952.374	C.3	4	GLU4	0.014	
50	  CD	1894.124	573.634	-1952.230	C.2	4	GLU4	0.805	
51	 OE1	1893.398	573.236	-1951.299	O.co2	4	GLU4	-0.819	
52	 OE2	1893.735	574.463	-1953.078	O.co2	4	GLU4	-0.819	
53	   H	1897.263	570.437	-1949.772	 H	4	GLU4	0.294	
54	  HA	1897.718	571.245	-1952.469	 H	4	GLU4	0.111	
55	 2HB	1895.947	572.574	-1950.301	 H	4	GLU4	-0.017	
56	 3HB	1895.451	571.236	-1951.314	 H	4	GLU4	-0.017	
57	 2HG	1895.632	572.723	-1953.391	 H	4	GLU4	-0.043	
58	 3HG	1896.139	574.070	-1952.385	 H	4	GLU4	-0.043	
59	   N	1898.714	573.479	-1950.274	N.am	5	SER5	-0.416	
60	  CA	1899.583	574.650	-1950.215	C.3	5	SER5	-0.025	
61	   C	1900.942	574.345	-1950.801	C.2	5	SER5	0.597	
62	   O	1901.489	575.098	-1951.606	O.2	5	SER5	-0.568	
63	  CB	1899.695	575.182	-1948.765	C.3	5	SER5	0.212	
64	  OG	1900.427	574.303	-1947.904	O.3	5	SER5	-0.655	
65	   H	1898.297	573.107	-1949.432	 H	5	SER5	0.272	
66	  HA	1899.134	575.440	-1950.845	 H	5	SER5	0.084	
67	 2HB	1898.695	575.376	-1948.332	 H	5	SER5	0.035	
68	 3HB	1900.200	576.168	-1948.767	 H	5	SER5	0.035	
69	  HG	1899.938	573.478	-1947.853	 H	5	SER5	0.428	
70	   N	1901.547	573.262	-1950.447	N.am	6	ILE6	-0.416	
71	  CA	1902.860	572.967	-1951.013	C.3	6	ILE6	-0.060	
72	   C	1902.803	572.929	-1952.521	C.2	6	ILE6	0.597	
73	   O	1903.638	573.517	-1953.225	O.2	6	ILE6	-0.568	
74	  CB	1903.460	571.630	-1950.413	C.3	6	ILE6	0.130	
75	 CG1	1903.480	571.569	-1948.852	C.3	6	ILE6	-0.043	
76	 CG2	1904.901	571.329	-1950.928	C.3	6	ILE6	-0.320	
77	 CD1	1903.750	570.179	-1948.237	C.3	6	ILE6	-0.066	
78	   H	1901.119	572.627	-1949.788	 H	6	ILE6	0.272	
79	  HA	1903.534	573.801	-1950.745	 H	6	ILE6	0.087	
80	  HB	1902.802	570.805	-1950.757	 H	6	ILE6	0.019	
81	2HG1	1902.497	571.888	-1948.456	 H	6	ILE6	0.024	
82	3HG1	1904.195	572.311	-1948.447	 H	6	ILE6	0.024	
83	1HG2	1904.960	571.235	-1952.027	 H	6	ILE6	0.088	
84	2HG2	1905.623	572.112	-1950.626	 H	6	ILE6	0.088	
85	3HG2	1905.292	570.367	-1950.550	 H	6	ILE6	0.088	
86	1HD1	1903.021	569.425	-1948.592	 H	6	ILE6	0.019	
87	2HD1	1904.760	569.801	-1948.473	 H	6	ILE6	0.019	
88	3HD1	1903.673	570.209	-1947.134	 H	6	ILE6	0.019	
89	   N	1901.857	572.266	-1953.094	N.am	7	LEU7	-0.416	
90	  CA	1901.802	572.230	-1954.553	C.3	7	LEU7	-0.052	
91	   C	1901.730	573.625	-1955.125	C.2	7	LEU7	0.597	
92	   O	1902.450	573.988	-1956.067	O.2	7	LEU7	-0.568	
93	  CB	1900.599	571.369	-1955.033	C.3	7	LEU7	-0.110	
94	  CG	1900.527	569.890	-1954.567	C.3	7	LEU7	0.353	
95	 CD1	1899.337	569.184	-1955.232	C.3	7	LEU7	-0.412	
96	 CD2	1901.821	569.111	-1954.858	C.3	7	LEU7	-0.412	
97	   H	1901.165	571.778	-1952.543	 H	7	LEU7	0.272	
98	  HA	1902.744	571.790	-1954.927	 H	7	LEU7	0.092	
99	 2HB	1900.576	571.385	-1956.141	 H	7	LEU7	0.046	
100	 3HB	1899.659	571.872	-1954.729	 H	7	LEU7	0.046	
101	  HG	1900.357	569.882	-1953.470	 H	7	LEU7	-0.036	
102	1HD1	1898.380	569.693	-1955.010	 H	7	LEU7	0.100	
103	2HD1	1899.436	569.143	-1956.334	 H	7	LEU7	0.100	
104	3HD1	1899.230	568.143	-1954.876	 H	7	LEU7	0.100	
105	1HD2	1902.096	569.141	-1955.928	 H	7	LEU7	0.100	
106	2HD2	1902.674	569.523	-1954.287	 H	7	LEU7	0.100	
107	3HD2	1901.739	568.049	-1954.562	 H	7	LEU7	0.100	
108	   N	1900.892	574.465	-1954.619	N.am	8	ASP8	-0.516	
109	  CA	1900.822	575.815	-1955.172	C.3	8	ASP8	0.038	
110	   C	1902.168	576.495	-1955.115	C.2	8	ASP8	0.537	
111	   O	1902.641	577.100	-1956.090	O.2	8	ASP8	-0.582	
112	  CB	1899.743	576.653	-1954.431	C.3	8	ASP8	-0.030	
113	  CG	1899.524	578.074	-1954.971	C.2	8	ASP8	0.799	
114	 OD1	1899.588	578.274	-1956.201	O.co2	8	ASP8	-0.801	
115	 OD2	1899.332	579.000	-1954.155	O.co2	8	ASP8	-0.801	
116	   H	1900.294	574.194	-1953.852	 H	8	ASP8	0.294	
117	  HA	1900.539	575.737	-1956.240	 H	8	ASP8	0.088	
118	 2HB	1900.000	576.737	-1953.359	 H	8	ASP8	-0.012	
119	 3HB	1898.764	576.148	-1954.464	 H	8	ASP8	-0.012	
120	   N	1902.848	576.445	-1954.020	N.am	9	GLU9	-0.516	
121	  CA	1904.150	577.103	-1953.964	C.3	9	GLU9	0.040	
122	   C	1905.069	576.576	-1955.040	C.2	9	GLU9	0.537	
123	   O	1905.732	577.331	-1955.765	O.2	9	GLU9	-0.582	
124	  CB	1904.784	576.895	-1952.559	C.3	9	GLU9	0.056	
125	  CG	1906.166	577.588	-1952.329	C.3	9	GLU9	0.014	
126	  CD	1906.868	577.374	-1951.001	C.2	9	GLU9	0.805	
127	 OE1	1906.346	576.683	-1950.105	O.co2	9	GLU9	-0.819	
128	 OE2	1907.987	577.913	-1950.869	O.co2	9	GLU9	-0.819	
129	   H	1902.484	575.958	-1953.213	 H	9	GLU9	0.294	
130	  HA	1904.008	578.185	-1954.139	 H	9	GLU9	0.111	
131	 2HB	1904.897	575.811	-1952.356	 H	9	GLU9	-0.017	
132	 3HB	1904.086	577.248	-1951.775	 H	9	GLU9	-0.017	
133	 2HG	1906.094	578.679	-1952.469	 H	9	GLU9	-0.043	
134	 3HG	1906.913	577.243	-1953.063	 H	9	GLU9	-0.043	
135	   N	1905.166	575.301	-1955.210	N.am	10	HIS10	-0.416	
136	  CA	1906.054	574.790	-1956.250	C.3	10	HIS10	-0.058	
137	   C	1905.687	575.355	-1957.601	C.2	10	HIS10	0.597	
138	   O	1906.539	575.820	-1958.373	O.2	10	HIS10	-0.568	
139	  CB	1905.890	573.261	-1956.246	C.3	10	HIS10	-0.007	
140	  CG	1907.176	572.551	-1955.938	C.2	10	HIS10	0.187	
141	 CD2	1907.557	572.216	-1954.645	C.2	10	HIS10	-0.221	
142	 ND1	1908.128	572.146	-1956.870	N.2	10	HIS10	-0.543	
143	 CE1	1909.035	571.587	-1956.047	C.2	10	HIS10	0.163	
144	 NE2	1908.772	571.584	-1954.712	N.pl3	10	HIS10	-0.280	
145	   H	1904.635	574.665	-1954.632	 H	10	HIS10	0.272	
146	  HA	1907.073	575.147	-1956.025	 H	10	HIS10	0.136	
147	 2HB	1905.525	572.894	-1957.226	 H	10	HIS10	0.037	
148	 3HB	1905.135	572.924	-1955.506	 H	10	HIS10	0.037	
149	 2HD	1906.971	572.430	-1953.756	 H	10	HIS10	0.186	
150	 1HE	1909.926	571.167	-1956.494	 H	10	HIS10	0.144	
151	 2HE	1909.339	571.207	-1953.938	 H	10	HIS10	0.334	
152	   N	1904.449	575.354	-1957.964	N.am	11	VAL11	-0.416	
153	  CA	1904.094	575.900	-1959.271	C.3	11	VAL11	-0.087	
154	   C	1904.558	577.331	-1959.403	C.2	11	VAL11	0.597	
155	   O	1905.159	577.736	-1960.406	O.2	11	VAL11	-0.568	
156	  CB	1902.533	575.793	-1959.491	C.3	11	VAL11	0.299	
157	 CG1	1901.964	576.497	-1960.754	C.3	11	VAL11	-0.319	
158	 CG2	1902.009	574.338	-1959.565	C.3	11	VAL11	-0.319	
159	   H	1903.736	574.980	-1957.354	 H	11	VAL11	0.272	
160	  HA	1904.614	575.318	-1960.054	 H	11	VAL11	0.097	
161	  HB	1902.045	576.272	-1958.616	 H	11	VAL11	-0.030	
162	1HG1	1902.403	576.106	-1961.691	 H	11	VAL11	0.079	
163	2HG1	1900.866	576.389	-1960.836	 H	11	VAL11	0.079	
164	3HG1	1902.142	577.589	-1960.744	 H	11	VAL11	0.079	
165	1HG2	1902.299	573.751	-1958.674	 H	11	VAL11	0.079	
166	2HG2	1900.903	574.301	-1959.608	 H	11	VAL11	0.079	
167	3HG2	1902.391	573.798	-1960.451	 H	11	VAL11	0.079	
168	   N	1904.320	578.156	-1958.441	N.am	12	LEU12	-0.416	
169	  CA	1904.769	579.539	-1958.568	C.3	12	LEU12	-0.052	
170	   C	1906.259	579.604	-1958.805	C.2	12	LEU12	0.597	
171	   O	1906.753	580.318	-1959.691	O.2	12	LEU12	-0.568	
172	  CB	1904.371	580.361	-1957.309	C.3	12	LEU12	-0.110	
173	  CG	1902.867	580.433	-1956.929	C.3	12	LEU12	0.353	
174	 CD1	1902.669	581.374	-1955.732	C.3	12	LEU12	-0.412	
175	 CD2	1901.980	580.889	-1958.099	C.3	12	LEU12	-0.412	
176	   H	1903.831	577.850	-1957.612	 H	12	LEU12	0.272	
177	  HA	1904.293	579.980	-1959.462	 H	12	LEU12	0.092	
178	 2HB	1904.748	581.395	-1957.431	 H	12	LEU12	0.046	
179	 3HB	1904.927	579.964	-1956.436	 H	12	LEU12	0.046	
180	  HG	1902.540	579.418	-1956.621	 H	12	LEU12	-0.036	
181	1HD1	1903.261	581.053	-1954.854	 H	12	LEU12	0.100	
182	2HD1	1902.967	582.414	-1955.964	 H	12	LEU12	0.100	
183	3HD1	1901.613	581.403	-1955.407	 H	12	LEU12	0.100	
184	1HD2	1902.298	581.865	-1958.510	 H	12	LEU12	0.100	
185	2HD2	1902.004	580.159	-1958.929	 H	12	LEU12	0.100	
186	3HD2	1900.918	580.980	-1957.803	 H	12	LEU12	0.100	
187	   N	1907.042	578.896	-1958.063	N.am	13	ARG13	-0.348	
188	  CA	1908.482	578.959	-1958.293	C.3	13	ARG13	-0.264	
189	   C	1908.819	578.587	-1959.718	C.2	13	ARG13	0.734	
190	   O	1909.589	579.257	-1960.401	O.2	13	ARG13	-0.589	
191	  CB	1909.193	578.019	-1957.278	C.3	13	ARG13	-0.001	
192	  CG	1910.738	578.170	-1957.196	C.3	13	ARG13	0.039	
193	  CD	1911.362	577.181	-1956.198	C.3	13	ARG13	0.049	
194	  NE	1912.840	577.386	-1956.146	N.pl3	13	ARG13	-0.530	
195	  CZ	1913.686	576.693	-1955.390	C.cat	13	ARG13	0.808	
196	 NH1	1913.318	575.729	-1954.593	N.pl3	13	ARG13	-0.863	
197	 NH2	1914.946	576.989	-1955.446	N.pl3	13	ARG13	-0.863	
198	   H	1906.664	578.307	-1957.335	 H	13	ARG13	0.275	
199	  HA	1908.808	580.005	-1958.135	 H	13	ARG13	0.156	
200	 2HB	1908.925	576.969	-1957.517	 H	13	ARG13	0.033	
201	 3HB	1908.767	578.187	-1956.268	 H	13	ARG13	0.033	
202	 2HG	1910.988	579.214	-1956.917	 H	13	ARG13	0.029	
203	 3HG	1911.189	578.013	-1958.197	 H	13	ARG13	0.029	
204	 2HD	1911.116	576.141	-1956.507	 H	13	ARG13	0.069	
205	 3HD	1910.905	577.328	-1955.195	 H	13	ARG13	0.069	
206	  HE	1913.293	578.107	-1956.717	 H	13	ARG13	0.346	
207	1HH1	1912.313	575.545	-1954.596	 H	13	ARG13	0.448	
208	2HH1	1914.030	575.245	-1954.043	 H	13	ARG13	0.448	
209	1HH2	1915.216	577.746	-1956.077	 H	13	ARG13	0.448	
210	2HH2	1915.580	576.447	-1954.857	 H	13	ARG13	0.448	
211	   N	1908.281	577.533	-1960.232	N.am	14	VAL14	-0.416	
212	  CA	1908.606	577.173	-1961.609	C.3	14	VAL14	-0.087	
213	   C	1908.279	578.303	-1962.555	C.2	14	VAL14	0.597	
214	   O	1909.074	578.683	-1963.425	O.2	14	VAL14	-0.568	
215	  CB	1907.832	575.857	-1962.016	C.3	14	VAL14	0.299	
216	 CG1	1907.921	575.438	-1963.510	C.3	14	VAL14	-0.319	
217	 CG2	1908.260	574.604	-1961.215	C.3	14	VAL14	-0.319	
218	   H	1907.645	576.966	-1959.690	 H	14	VAL14	0.272	
219	  HA	1909.694	576.994	-1961.683	 H	14	VAL14	0.097	
220	  HB	1906.755	576.031	-1961.801	 H	14	VAL14	-0.030	
221	1HG1	1908.962	575.259	-1963.838	 H	14	VAL14	0.079	
222	2HG1	1907.346	574.516	-1963.722	 H	14	VAL14	0.079	
223	3HG1	1907.494	576.201	-1964.188	 H	14	VAL14	0.079	
224	1HG2	1908.173	574.763	-1960.125	 H	14	VAL14	0.079	
225	2HG2	1907.623	573.729	-1961.448	 H	14	VAL14	0.079	
226	3HG2	1909.308	574.312	-1961.420	 H	14	VAL14	0.079	
227	   N	1907.135	578.892	-1962.455	N.am	15	MET15	-0.416	
228	  CA	1906.818	579.984	-1963.369	C.3	15	MET15	-0.024	
229	   C	1907.850	581.082	-1963.281	C.2	15	MET15	0.597	
230	   O	1908.354	581.592	-1964.294	O.2	15	MET15	-0.568	
231	  CB	1905.397	580.533	-1963.061	C.3	15	MET15	0.034	
232	  CG	1904.233	579.537	-1963.253	C.3	15	MET15	0.002	
233	  SD	1902.661	580.407	-1963.140	S.3	15	MET15	-0.274	
234	  CE	1901.577	578.979	-1963.003	C.3	15	MET15	-0.054	
235	   H	1906.469	578.600	-1961.753	 H	15	MET15	0.272	
236	  HA	1906.843	579.597	-1964.404	 H	15	MET15	0.088	
237	 2HB	1905.197	581.412	-1963.704	 H	15	MET15	0.024	
238	 3HB	1905.362	580.926	-1962.025	 H	15	MET15	0.024	
239	 2HG	1904.274	578.752	-1962.475	 H	15	MET15	0.044	
240	 3HG	1904.296	579.022	-1964.229	 H	15	MET15	0.044	
241	 1HE	1901.719	578.290	-1963.855	 H	15	MET15	0.068	
242	 2HE	1901.784	578.427	-1962.070	 H	15	MET15	0.068	
243	 3HE	1900.520	579.297	-1962.988	 H	15	MET15	0.068	
244	   N	1908.219	581.503	-1962.119	N.am	16	ARG16	-0.348	
245	  CA	1909.218	582.565	-1962.035	C.3	16	ARG16	-0.264	
246	   C	1910.488	582.169	-1962.750	C.2	16	ARG16	0.734	
247	   O	1910.600	581.093	-1963.332	O.2	16	ARG16	-0.589	
248	  CB	1909.486	582.883	-1960.536	C.3	16	ARG16	-0.001	
249	  CG	1910.314	584.170	-1960.263	C.3	16	ARG16	0.039	
250	  CD	1910.563	584.389	-1958.762	C.3	16	ARG16	0.049	
251	  NE	1911.342	585.647	-1958.561	N.pl3	16	ARG16	-0.530	
252	  CZ	1911.733	586.128	-1957.385	C.cat	16	ARG16	0.808	
253	 NH1	1911.484	585.545	-1956.247	N.pl3	16	ARG16	-0.863	
254	 NH2	1912.400	587.240	-1957.367	N.pl3	16	ARG16	-0.863	
255	   H	1907.823	581.104	-1961.280	 H	16	ARG16	0.275	
256	  HA	1908.811	583.458	-1962.545	 H	16	ARG16	0.156	
257	 2HB	1909.981	582.006	-1960.070	 H	16	ARG16	0.033	
258	 3HB	1908.517	582.966	-1960.003	 H	16	ARG16	0.033	
259	 2HG	1909.786	585.042	-1960.701	 H	16	ARG16	0.029	
260	 3HG	1911.288	584.115	-1960.792	 H	16	ARG16	0.029	
261	 2HD	1911.110	583.514	-1958.348	 H	16	ARG16	0.069	
262	 3HD	1909.590	584.434	-1958.227	 H	16	ARG16	0.069	
263	  HE	1911.622	586.227	-1959.358	 H	16	ARG16	0.346	
264	1HH1	1910.957	584.673	-1956.331	 H	16	ARG16	0.448	
265	2HH1	1911.819	585.980	-1955.386	 H	16	ARG16	0.448	
266	1HH2	1912.586	587.682	-1958.269	 H	16	ARG16	0.448	
267	2HH2	1912.690	587.595	-1956.454	 H	16	ARG16	0.448	
@<TRIPOS>BOND
1 1 2 1
2 1 10 1
3 2 3 1
4 2 5 1
5 2 11 1
6 3 4 2
7 3 16 1
8 5 6 1
9 6 7 1
10 7 8 2
11 7 9 1
12 5 12 1
13 5 13 1
14 6 14 1
15 6 15 1
16 16 17 1
17 16 24 1
18 17 18 1
19 17 20 1
20 17 25 1
21 18 19 2
22 18 30 1
23 20 21 1
24 21 22 1
25 21 23 2
26 20 26 1
27 20 27 1
28 22 28 1
29 22 29 1
30 30 31 1
31 30 36 1
32 31 32 1
33 31 34 1
34 31 37 1
35 32 33 2
36 32 44 1
37 34 35 1
38 35 36 1
39 34 38 1
40 34 39 1
41 35 40 1
42 35 41 1
43 36 42 1
44 36 43 1
45 44 45 1
46 44 53 1
47 45 46 1
48 45 48 1
49 45 54 1
50 46 47 2
51 46 59 1
52 48 49 1
53 49 50 1
54 50 51 2
55 50 52 1
56 48 55 1
57 48 56 1
58 49 57 1
59 49 58 1
60 59 60 1
61 59 65 1
62 60 61 1
63 60 63 1
64 60 66 1
65 61 62 2
66 61 70 1
67 63 64 1
68 63 67 1
69 63 68 1
70 64 69 1
71 70 71 1
72 70 78 1
73 71 72 1
74 71 74 1
75 71 79 1
76 72 73 2
77 72 89 1
78 74 75 1
79 74 76 1
80 75 77 1
81 74 80 1
82 75 81 1
83 75 82 1
84 76 83 1
85 76 84 1
86 76 85 1
87 77 86 1
88 77 87 1
89 77 88 1
90 89 90 1
91 89 97 1
92 90 91 1
93 90 93 1
94 90 98 1
95 91 92 2
96 91 108 1
97 93 94 1
98 94 95 1
99 94 96 1
100 93 99 1
101 93 100 1
102 94 101 1
103 95 102 1
104 95 103 1
105 95 104 1
106 96 105 1
107 96 106 1
108 96 107 1
109 108 109 1
110 108 116 1
111 109 110 1
112 109 112 1
113 109 117 1
114 110 111 2
115 110 120 1
116 112 113 1
117 113 114 2
118 113 115 1
119 112 118 1
120 112 119 1
121 120 121 1
122 120 129 1
123 121 122 1
124 121 124 1
125 121 130 1
126 122 123 2
127 122 135 1
128 124 125 1
129 125 126 1
130 126 127 2
131 126 128 1
132 124 131 1
133 124 132 1
134 125 133 1
135 125 134 1
136 135 136 1
137 135 145 1
138 136 137 1
139 136 139 1
140 136 146 1
141 137 138 2
142 137 152 1
143 139 140 1
144 140 141 2
145 141 144 1
146 140 142 1
147 142 143 2
148 143 144 1
149 139 147 1
150 139 148 1
151 141 149 1
152 143 150 1
153 144 151 1
154 152 153 1
155 152 159 1
156 153 154 1
157 153 156 1
158 153 160 1
159 154 155 2
160 154 168 1
161 156 157 1
162 156 158 1
163 156 161 1
164 157 162 1
165 157 163 1
166 157 164 1
167 158 165 1
168 158 166 1
169 158 167 1
170 168 169 1
171 168 176 1
172 169 170 1
173 169 172 1
174 169 177 1
175 170 171 2
176 170 187 1
177 172 173 1
178 173 174 1
179 173 175 1
180 172 178 1
181 172 179 1
182 173 180 1
183 174 181 1
184 174 182 1
185 174 183 1
186 175 184 1
187 175 185 1
188 175 186 1
189 187 188 1
190 187 198 1
191 188 189 1
192 188 191 1
193 188 199 1
194 189 190 2
195 189 211 1
196 191 192 1
197 192 193 1
198 193 194 1
199 194 195 1
200 195 196 2
201 195 197 1
202 191 200 1
203 191 201 1
204 192 202 1
205 192 203 1
206 193 204 1
207 193 205 1
208 194 206 1
209 196 207 1
210 196 208 1
211 197 209 1
212 197 210 1
213 211 212 1
214 211 218 1
215 212 213 1
216 212 215 1
217 212 219 1
218 213 214 2
219 213 227 1
220 215 216 1
221 215 217 1
222 215 220 1
223 216 221 1
224 216 222 1
225 216 223 1
226 217 224 1
227 217 225 1
228 217 226 1
229 227 228 1
230 227 235 1
231 228 229 1
232 228 231 1
233 228 236 1
234 229 230 2
235 229 244 1
236 231 232 1
237 232 233 1
238 233 234 1
239 231 237 1
240 231 238 1
241 232 239 1
242 232 240 1
243 234 241 1
244 234 242 1
245 234 243 1
246 244 245 1
247 244 255 1
248 245 246 1
249 245 248 1
250 245 256 1
251 246 247 2
252 248 249 1
253 249 250 1
254 250 251 1
255 251 252 1
256 252 253 2
257 252 254 1
258 248 257 1
259 248 258 1
260 249 259 1
261 249 260 1
262 250 261 1
263 250 262 1
264 251 263 1
265 253 264 1
266 253 265 1
267 254 266 1
268 254 267 1
@<TRIPOS>SUBSTRUCTURE
1	GLU1	1	RESIDUE	1 ****	GLU
2	ASN2	16	RESIDUE	1 ****	ASN
3	PRO3	30	RESIDUE	1 ****	PRO
4	GLU4	44	RESIDUE	1 ****	GLU
5	SER5	59	RESIDUE	1 ****	SER
6	ILE6	70	RESIDUE	1 ****	ILE
7	LEU7	89	RESIDUE	1 ****	LEU
8	ASP8	108	RESIDUE	1 ****	ASP
9	GLU9	120	RESIDUE	1 ****	GLU
10	HIS10	135	RESIDUE	1 ****	HIS
11	VAL11	152	RESIDUE	1 ****	VAL
12	LEU12	168	RESIDUE	1 ****	LEU
13	ARG13	187	RESIDUE	1 ****	ARG
14	VAL14	211	RESIDUE	1 ****	VAL
15	MET15	227	RESIDUE	1 ****	MET
16	ARG16	244	RESIDUE	1 ****	ARG
