@<TRIPOS>MOLECULE
14-19
271 272 16              
SMALL
USER_CHARGES
@<TRIPOS>ATOM
1	   N	2316.437	708.552	-2408.511	N.3	1	GLU1	-0.516	
2	  CA	2316.996	709.901	-2408.511	C.3	1	GLU1	0.040	
3	   C	2318.505	709.861	-2408.511	C.2	1	GLU1	0.537	
4	   O	2319.181	710.560	-2409.280	O.2	1	GLU1	-0.582	
5	  CB	2316.473	710.686	-2407.274	C.3	1	GLU1	0.056	
6	  CG	2316.948	712.171	-2407.163	C.3	1	GLU1	0.014	
7	  CD	2316.524	712.975	-2405.948	C.2	1	GLU1	0.805	
8	 OE1	2315.796	712.473	-2405.070	O.co2	1	GLU1	-0.819	
9	 OE2	2316.954	714.145	-2405.876	O.co2	1	GLU1	-0.819	
10	   H	2317.064	707.673	-2408.511	 H	1	GLU1	0.294	
11	  HA	2316.670	710.419	-2409.431	 H	1	GLU1	0.111	
12	 2HB	2316.762	710.155	-2406.344	 H	1	GLU1	-0.017	
13	 3HB	2315.366	710.676	-2407.261	 H	1	GLU1	-0.017	
14	 2HG	2316.638	712.756	-2408.044	 H	1	GLU1	-0.043	
15	 3HG	2318.048	712.238	-2407.134	 H	1	GLU1	-0.043	
16	   N	2319.109	709.075	-2407.686	N.am	2	ASN2	-0.416	
17	  CA	2320.569	709.036	-2407.686	C.3	2	ASN2	0.014	
18	   C	2321.100	708.680	-2409.054	C.2	2	ASN2	0.597	
19	   O	2322.015	709.311	-2409.583	O.2	2	ASN2	-0.568	
20	  CB	2321.060	708.013	-2406.621	C.3	2	ASN2	-0.204	
21	  CG	2320.597	708.237	-2405.178	C.2	2	ASN2	0.713	
22	 ND2	2321.191	709.152	-2404.460	N.pl3	2	ASN2	-0.919	
23	 OD1	2319.676	707.603	-2404.684	O.2	2	ASN2	-0.593	
24	   H	2318.581	708.495	-2407.050	 H	2	ASN2	0.272	
25	  HA	2320.946	710.046	-2407.440	 H	2	ASN2	0.105	
26	 2HB	2322.165	707.954	-2406.625	 H	2	ASN2	0.080	
27	 3HB	2320.731	706.995	-2406.907	 H	2	ASN2	0.080	
28	1HD2	2320.710	709.325	-2403.573	 H	2	ASN2	0.420	
29	2HD2	2321.893	709.723	-2404.929	 H	2	ASN2	0.420	
30	   N	2320.579	707.686	-2409.689	N.am	3	PRO3	-0.255	
31	  CA	2321.031	707.276	-2411.010	C.3	3	PRO3	-0.027	
32	   C	2320.633	708.300	-2412.087	C.2	3	PRO3	0.590	
33	   O	2321.457	708.683	-2412.918	O.2	3	PRO3	-0.575	
34	  CB	2320.326	705.922	-2411.180	C.3	3	PRO3	-0.007	
35	  CG	2319.043	706.074	-2410.350	C.3	3	PRO3	0.019	
36	  CD	2319.500	706.893	-2409.140	C.3	3	PRO3	0.019	
37	  HA	2322.117	707.156	-2411.023	 H	3	PRO3	0.064	
38	 2HB	2320.949	705.141	-2410.739	 H	3	PRO3	0.025	
39	 3HB	2320.128	705.673	-2412.225	 H	3	PRO3	0.025	
40	 2HG	2318.615	705.112	-2410.059	 H	3	PRO3	0.021	
41	 3HG	2318.306	706.645	-2410.917	 H	3	PRO3	0.021	
42	 2HD	2319.889	706.243	-2408.353	 H	3	PRO3	0.039	
43	 3HD	2318.704	707.529	-2408.747	 H	3	PRO3	0.039	
44	   N	2319.428	708.760	-2412.120	N.am	4	GLU4	-0.516	
45	  CA	2319.069	709.731	-2413.150	C.3	4	GLU4	0.040	
46	   C	2319.968	710.942	-2413.088	C.2	4	GLU4	0.537	
47	   O	2320.495	711.421	-2414.102	O.2	4	GLU4	-0.582	
48	  CB	2317.581	710.150	-2412.980	C.3	4	GLU4	0.056	
49	  CG	2317.033	711.154	-2414.046	C.3	4	GLU4	0.014	
50	  CD	2315.607	711.651	-2413.903	C.2	4	GLU4	0.805	
51	 OE1	2314.880	711.253	-2412.972	O.co2	4	GLU4	-0.819	
52	 OE2	2315.218	712.480	-2414.751	O.co2	4	GLU4	-0.819	
53	   H	2318.744	708.454	-2411.443	 H	4	GLU4	0.294	
54	  HA	2319.201	709.261	-2414.141	 H	4	GLU4	0.111	
55	 2HB	2317.428	710.590	-2411.973	 H	4	GLU4	-0.017	
56	 3HB	2316.933	709.252	-2412.986	 H	4	GLU4	-0.017	
57	 2HG	2317.115	710.739	-2415.064	 H	4	GLU4	-0.043	
58	 3HG	2317.622	712.086	-2414.057	 H	4	GLU4	-0.043	
59	   N	2320.195	711.495	-2411.945	N.am	5	SER5	-0.416	
60	  CA	2321.065	712.666	-2411.886	C.3	5	SER5	-0.025	
61	   C	2322.424	712.359	-2412.471	C.2	5	SER5	0.597	
62	   O	2322.972	713.113	-2413.276	O.2	5	SER5	-0.568	
63	  CB	2321.177	713.198	-2410.436	C.3	5	SER5	0.212	
64	  OG	2321.907	712.318	-2409.574	O.3	5	SER5	-0.655	
65	   H	2319.778	711.123	-2411.104	 H	5	SER5	0.272	
66	  HA	2320.616	713.456	-2412.515	 H	5	SER5	0.084	
67	 2HB	2320.177	713.392	-2410.002	 H	5	SER5	0.035	
68	 3HB	2321.682	714.183	-2410.438	 H	5	SER5	0.035	
69	  HG	2321.418	711.493	-2409.524	 H	5	SER5	0.428	
70	   N	2323.028	711.276	-2412.117	N.am	6	ILE6	-0.416	
71	  CA	2324.342	710.981	-2412.683	C.3	6	ILE6	-0.060	
72	   C	2324.284	710.943	-2414.191	C.2	6	ILE6	0.597	
73	   O	2325.119	711.530	-2414.895	O.2	6	ILE6	-0.568	
74	  CB	2324.941	709.644	-2412.083	C.3	6	ILE6	0.130	
75	 CG1	2324.959	709.582	-2410.522	C.3	6	ILE6	-0.043	
76	 CG2	2326.382	709.342	-2412.598	C.3	6	ILE6	-0.320	
77	 CD1	2325.229	708.193	-2409.906	C.3	6	ILE6	-0.066	
78	   H	2322.599	710.642	-2411.458	 H	6	ILE6	0.272	
79	  HA	2325.016	711.815	-2412.415	 H	6	ILE6	0.087	
80	  HB	2324.282	708.819	-2412.427	 H	6	ILE6	0.019	
81	2HG1	2323.978	709.902	-2410.126	 H	6	ILE6	0.024	
82	3HG1	2325.676	710.324	-2410.117	 H	6	ILE6	0.024	
83	1HG2	2326.441	709.249	-2413.696	 H	6	ILE6	0.088	
84	2HG2	2327.104	710.124	-2412.295	 H	6	ILE6	0.088	
85	3HG2	2326.771	708.380	-2412.219	 H	6	ILE6	0.088	
86	1HD1	2324.500	707.439	-2410.261	 H	6	ILE6	0.019	
87	2HD1	2326.239	707.814	-2410.142	 H	6	ILE6	0.019	
88	3HD1	2325.152	708.223	-2408.804	 H	6	ILE6	0.019	
89	   N	2323.338	710.280	-2414.764	N.am	7	LEU7	-0.416	
90	  CA	2323.283	710.244	-2416.223	C.3	7	LEU7	-0.052	
91	   C	2323.211	711.639	-2416.796	C.2	7	LEU7	0.597	
92	   O	2323.932	712.001	-2417.738	O.2	7	LEU7	-0.568	
93	  CB	2322.080	709.384	-2416.703	C.3	7	LEU7	-0.110	
94	  CG	2322.007	707.905	-2416.237	C.3	7	LEU7	0.353	
95	 CD1	2320.817	707.199	-2416.902	C.3	7	LEU7	-0.412	
96	 CD2	2323.300	707.125	-2416.528	C.3	7	LEU7	-0.412	
97	   H	2322.646	709.793	-2414.213	 H	7	LEU7	0.272	
98	  HA	2324.225	709.803	-2416.597	 H	7	LEU7	0.092	
99	 2HB	2322.057	709.400	-2417.811	 H	7	LEU7	0.046	
100	 3HB	2321.140	709.887	-2416.399	 H	7	LEU7	0.046	
101	  HG	2321.837	707.897	-2415.139	 H	7	LEU7	-0.036	
102	1HD1	2319.860	707.708	-2416.679	 H	7	LEU7	0.100	
103	2HD1	2320.916	707.159	-2418.003	 H	7	LEU7	0.100	
104	3HD1	2320.709	706.158	-2416.546	 H	7	LEU7	0.100	
105	1HD2	2323.575	707.155	-2417.598	 H	7	LEU7	0.100	
106	2HD2	2324.154	707.536	-2415.957	 H	7	LEU7	0.100	
107	3HD2	2323.219	706.063	-2416.232	 H	7	LEU7	0.100	
108	   N	2322.375	712.480	-2416.290	N.am	8	ASP8	-0.516	
109	  CA	2322.305	713.830	-2416.844	C.3	8	ASP8	0.038	
110	   C	2323.652	714.509	-2416.787	C.2	8	ASP8	0.537	
111	   O	2324.125	715.113	-2417.762	O.2	8	ASP8	-0.582	
112	  CB	2321.227	714.670	-2416.103	C.3	8	ASP8	-0.030	
113	  CG	2321.009	716.090	-2416.644	C.2	8	ASP8	0.799	
114	 OD1	2321.073	716.288	-2417.875	O.co2	8	ASP8	-0.801	
115	 OD2	2320.818	717.017	-2415.829	O.co2	8	ASP8	-0.801	
116	   H	2321.777	712.210	-2415.522	 H	8	ASP8	0.294	
117	  HA	2322.022	713.751	-2417.911	 H	8	ASP8	0.088	
118	 2HB	2321.484	714.753	-2415.031	 H	8	ASP8	-0.012	
119	 3HB	2320.248	714.165	-2416.135	 H	8	ASP8	-0.012	
120	   N	2324.332	714.459	-2415.692	N.am	9	GLU9	-0.516	
121	  CA	2325.635	715.116	-2415.637	C.3	9	GLU9	0.040	
122	   C	2326.552	714.587	-2416.713	C.2	9	GLU9	0.537	
123	   O	2327.216	715.341	-2417.439	O.2	9	GLU9	-0.582	
124	  CB	2326.269	714.909	-2414.232	C.3	9	GLU9	0.056	
125	  CG	2327.652	715.601	-2414.003	C.3	9	GLU9	0.014	
126	  CD	2328.354	715.387	-2412.675	C.2	9	GLU9	0.805	
127	 OE1	2327.832	714.697	-2411.778	O.co2	9	GLU9	-0.819	
128	 OE2	2329.473	715.925	-2412.544	O.co2	9	GLU9	-0.819	
129	   H	2323.968	713.973	-2414.885	 H	9	GLU9	0.294	
130	  HA	2325.493	716.198	-2415.813	 H	9	GLU9	0.111	
131	 2HB	2326.381	713.824	-2414.028	 H	9	GLU9	-0.017	
132	 3HB	2325.572	715.263	-2413.448	 H	9	GLU9	-0.017	
133	 2HG	2327.580	716.691	-2414.143	 H	9	GLU9	-0.043	
134	 3HG	2328.398	715.255	-2414.737	 H	9	GLU9	-0.043	
135	   N	2326.648	713.312	-2416.882	N.am	10	HIS10	-0.416	
136	  CA	2327.536	712.800	-2417.922	C.3	10	HIS10	-0.058	
137	   C	2327.169	713.364	-2419.274	C.2	10	HIS10	0.597	
138	   O	2328.021	713.828	-2420.046	O.2	10	HIS10	-0.568	
139	  CB	2327.371	711.271	-2417.917	C.3	10	HIS10	-0.007	
140	  CG	2328.656	710.560	-2417.609	C.2	10	HIS10	0.187	
141	 CD2	2329.038	710.226	-2416.316	C.2	10	HIS10	-0.221	
142	 ND1	2329.608	710.154	-2418.541	N.2	10	HIS10	-0.543	
143	 CE1	2330.514	709.595	-2417.718	C.2	10	HIS10	0.163	
144	 NE2	2330.252	709.593	-2416.383	N.pl3	10	HIS10	-0.280	
145	   H	2326.118	712.677	-2416.303	 H	10	HIS10	0.272	
146	  HA	2328.555	713.157	-2417.698	 H	10	HIS10	0.136	
147	 2HB	2327.005	710.904	-2418.896	 H	10	HIS10	0.037	
148	 3HB	2326.615	710.935	-2417.176	 H	10	HIS10	0.037	
149	 2HD	2328.453	710.441	-2415.427	 H	10	HIS10	0.186	
150	 1HE	2331.405	709.174	-2418.165	 H	10	HIS10	0.144	
151	 2HE	2330.819	709.216	-2415.610	 H	10	HIS10	0.334	
152	   N	2325.931	713.364	-2419.636	N.am	11	VAL11	-0.416	
153	  CA	2325.576	713.909	-2420.944	C.3	11	VAL11	-0.087	
154	   C	2326.041	715.339	-2421.077	C.2	11	VAL11	0.597	
155	   O	2326.642	715.744	-2422.080	O.2	11	VAL11	-0.568	
156	  CB	2324.014	713.803	-2421.163	C.3	11	VAL11	0.299	
157	 CG1	2323.446	714.507	-2422.426	C.3	11	VAL11	-0.319	
158	 CG2	2323.489	712.349	-2421.235	C.3	11	VAL11	-0.319	
159	   H	2325.218	712.991	-2419.026	 H	11	VAL11	0.272	
160	  HA	2326.095	713.326	-2421.726	 H	11	VAL11	0.097	
161	  HB	2323.527	714.284	-2420.288	 H	11	VAL11	-0.030	
162	1HG1	2323.884	714.114	-2423.363	 H	11	VAL11	0.079	
163	2HG1	2322.347	714.400	-2422.508	 H	11	VAL11	0.079	
164	3HG1	2323.625	715.599	-2422.417	 H	11	VAL11	0.079	
165	1HG2	2323.779	711.762	-2420.344	 H	11	VAL11	0.079	
166	2HG2	2322.383	712.313	-2421.277	 H	11	VAL11	0.079	
167	3HG2	2323.871	711.808	-2422.121	 H	11	VAL11	0.079	
168	   N	2325.805	716.166	-2420.115	N.am	12	GLN12	-0.416	
169	  CA	2326.254	717.548	-2420.243	C.3	12	GLN12	-0.003	
170	   C	2327.744	717.615	-2420.481	C.2	12	GLN12	0.597	
171	   O	2328.231	718.322	-2421.360	O.2	12	GLN12	-0.568	
172	  CB	2325.864	718.317	-2418.960	C.3	12	GLN12	-0.004	
173	  CG	2326.225	719.838	-2418.930	C.3	12	GLN12	-0.064	
174	  CD	2325.923	720.653	-2417.666	C.2	12	GLN12	0.695	
175	 NE2	2325.356	720.077	-2416.636	N.pl3	12	GLN12	-0.941	
176	 OE1	2326.226	721.833	-2417.589	O.2	12	GLN12	-0.609	
177	   H	2325.316	715.860	-2419.285	 H	12	GLN12	0.272	
178	  HA	2325.754	718.004	-2421.118	 H	12	GLN12	0.085	
179	 2HB	2326.340	717.817	-2418.091	 H	12	GLN12	0.017	
180	 3HB	2324.773	718.210	-2418.797	 H	12	GLN12	0.017	
181	 2HG	2325.748	720.359	-2419.781	 H	12	GLN12	0.035	
182	 3HG	2327.308	719.980	-2419.096	 H	12	GLN12	0.035	
183	1HE2	2325.250	720.672	-2415.813	 H	12	GLN12	0.425	
184	2HE2	2325.192	719.074	-2416.739	 H	12	GLN12	0.425	
185	   N	2328.528	716.908	-2419.740	N.am	13	ARG13	-0.348	
186	  CA	2329.969	716.973	-2419.971	C.3	13	ARG13	-0.264	
187	   C	2330.304	716.601	-2421.396	C.2	13	ARG13	0.734	
188	   O	2331.073	717.272	-2422.081	O.2	13	ARG13	-0.589	
189	  CB	2330.682	716.035	-2418.957	C.3	13	ARG13	-0.001	
190	  CG	2332.227	716.187	-2418.876	C.3	13	ARG13	0.039	
191	  CD	2332.854	715.200	-2417.878	C.3	13	ARG13	0.049	
192	  NE	2334.331	715.407	-2417.828	N.pl3	13	ARG13	-0.530	
193	  CZ	2335.179	714.716	-2417.073	C.cat	13	ARG13	0.808	
194	 NH1	2334.814	713.752	-2416.274	N.pl3	13	ARG13	-0.863	
195	 NH2	2336.439	715.014	-2417.130	N.pl3	13	ARG13	-0.863	
196	   H	2328.152	716.319	-2419.011	 H	13	ARG13	0.275	
197	  HA	2330.293	718.019	-2419.813	 H	13	ARG13	0.156	
198	 2HB	2330.415	714.984	-2419.195	 H	13	ARG13	0.033	
199	 3HB	2330.257	716.202	-2417.946	 H	13	ARG13	0.033	
200	 2HG	2332.475	717.232	-2418.598	 H	13	ARG13	0.029	
201	 3HG	2332.677	716.030	-2419.878	 H	13	ARG13	0.029	
202	 2HD	2332.609	714.160	-2418.186	 H	13	ARG13	0.069	
203	 3HD	2332.398	715.347	-2416.875	 H	13	ARG13	0.069	
204	  HE	2334.782	716.129	-2418.399	 H	13	ARG13	0.346	
205	1HH1	2333.809	713.566	-2416.277	 H	13	ARG13	0.448	
206	2HH1	2335.527	713.269	-2415.725	 H	13	ARG13	0.448	
207	1HH2	2336.707	715.772	-2417.762	 H	13	ARG13	0.448	
208	2HH2	2337.074	714.473	-2416.541	 H	13	ARG13	0.448	
209	   N	2329.768	715.546	-2421.909	N.am	14	LYS14	-0.348	
210	  CA	2330.092	715.185	-2423.287	C.3	14	LYS14	-0.240	
211	   C	2329.762	716.315	-2424.234	C.2	14	LYS14	0.734	
212	   O	2330.557	716.695	-2425.105	O.2	14	LYS14	-0.589	
213	  CB	2329.325	713.892	-2423.676	C.3	14	LYS14	-0.009	
214	  CG	2329.661	713.382	-2425.100	C.3	14	LYS14	0.019	
215	  CD	2328.875	712.145	-2425.543	C.3	14	LYS14	-0.048	
216	  CE	2329.253	711.797	-2426.989	C.3	14	LYS14	-0.014	
217	  NZ	2328.634	710.513	-2427.362	N.4	14	LYS14	-0.385	
218	   H	2329.133	714.978	-2421.367	 H	14	LYS14	0.275	
219	  HA	2331.181	715.003	-2423.353	 H	14	LYS14	0.143	
220	 2HB	2328.233	714.064	-2423.586	 H	14	LYS14	0.036	
221	 3HB	2329.548	713.091	-2422.943	 H	14	LYS14	0.036	
222	 2HG	2330.749	713.186	-2425.177	 H	14	LYS14	0.010	
223	 3HG	2329.450	714.170	-2425.847	 H	14	LYS14	0.010	
224	 2HD	2327.787	712.346	-2425.470	 H	14	LYS14	0.062	
225	 3HD	2329.084	711.302	-2424.856	 H	14	LYS14	0.062	
226	 2HE	2330.354	711.726	-2427.109	 H	14	LYS14	0.113	
227	 3HE	2328.924	712.601	-2427.681	 H	14	LYS14	0.113	
228	 1HZ	2327.699	710.427	-2426.945	 H	14	LYS14	0.340	
229	 2HZ	2328.501	710.443	-2428.376	 H	14	LYS14	0.340	
230	 3HZ	2329.256	709.790	-2427.030	 H	14	LYS14	0.340	
231	   N	2328.618	716.902	-2424.133	N.am	15	MET15	-0.416	
232	  CA	2328.298	717.994	-2425.048	C.3	15	MET15	-0.024	
233	   C	2329.330	719.093	-2424.961	C.2	15	MET15	0.597	
234	   O	2329.833	719.602	-2425.974	O.2	15	MET15	-0.568	
235	  CB	2326.878	718.542	-2424.739	C.3	15	MET15	0.034	
236	  CG	2325.715	717.544	-2424.930	C.3	15	MET15	0.002	
237	  SD	2324.141	718.412	-2424.816	S.3	15	MET15	-0.274	
238	  CE	2323.059	716.984	-2424.678	C.3	15	MET15	-0.054	
239	   H	2327.952	716.611	-2423.431	 H	15	MET15	0.272	
240	  HA	2328.324	717.606	-2426.083	 H	15	MET15	0.088	
241	 2HB	2326.676	719.420	-2425.382	 H	15	MET15	0.024	
242	 3HB	2326.842	718.935	-2423.703	 H	15	MET15	0.024	
243	 2HG	2325.757	716.759	-2424.151	 H	15	MET15	0.044	
244	 3HG	2325.777	717.028	-2425.906	 H	15	MET15	0.044	
245	 1HE	2323.202	716.294	-2425.530	 H	15	MET15	0.068	
246	 2HE	2323.267	716.432	-2423.745	 H	15	MET15	0.068	
247	 3HE	2322.001	717.300	-2424.662	 H	15	MET15	0.068	
248	   N	2329.698	719.515	-2423.799	N.am	16	ARG16	-0.348	
249	  CA	2330.696	720.578	-2423.717	C.3	16	ARG16	-0.264	
250	   C	2331.966	720.183	-2424.432	C.2	16	ARG16	0.734	
251	   O	2332.079	719.106	-2425.012	O.2	16	ARG16	-0.589	
252	  CB	2330.965	720.898	-2422.219	C.3	16	ARG16	-0.001	
253	  CG	2331.792	722.186	-2421.947	C.3	16	ARG16	0.039	
254	  CD	2332.041	722.407	-2420.446	C.3	16	ARG16	0.049	
255	  NE	2332.819	723.666	-2420.247	N.pl3	16	ARG16	-0.530	
256	  CZ	2333.210	724.149	-2419.072	C.cat	16	ARG16	0.808	
257	 NH1	2332.962	723.566	-2417.933	N.pl3	16	ARG16	-0.863	
258	 NH2	2333.875	725.261	-2419.054	N.pl3	16	ARG16	-0.863	
259	   H	2329.303	719.116	-2422.959	 H	16	ARG16	0.275	
260	  HA	2330.288	721.471	-2424.228	 H	16	ARG16	0.156	
261	 2HB	2331.461	720.022	-2421.751	 H	16	ARG16	0.033	
262	 3HB	2329.997	720.980	-2421.685	 H	16	ARG16	0.033	
263	 2HG	2331.262	723.057	-2422.385	 H	16	ARG16	0.029	
264	 3HG	2332.765	722.132	-2422.476	 H	16	ARG16	0.029	
265	 2HD	2332.589	721.532	-2420.032	 H	16	ARG16	0.069	
266	 3HD	2331.068	722.452	-2419.911	 H	16	ARG16	0.069	
267	  HE	2333.098	724.245	-2421.045	 H	16	ARG16	0.346	
268	1HH1	2332.436	722.694	-2418.016	 H	16	ARG16	0.448	
269	2HH1	2333.297	724.003	-2417.072	 H	16	ARG16	0.448	
270	1HH2	2334.061	725.703	-2419.957	 H	16	ARG16	0.448	
271	2HH2	2334.166	725.617	-2418.142	 H	16	ARG16	0.448	
@<TRIPOS>BOND
1 1 2 1
2 1 10 1
3 2 3 1
4 2 5 1
5 2 11 1
6 3 4 2
7 3 16 1
8 5 6 1
9 6 7 1
10 7 8 2
11 7 9 1
12 5 12 1
13 5 13 1
14 6 14 1
15 6 15 1
16 16 17 1
17 16 24 1
18 17 18 1
19 17 20 1
20 17 25 1
21 18 19 2
22 18 30 1
23 20 21 1
24 21 22 1
25 21 23 2
26 20 26 1
27 20 27 1
28 22 28 1
29 22 29 1
30 30 31 1
31 30 36 1
32 31 32 1
33 31 34 1
34 31 37 1
35 32 33 2
36 32 44 1
37 34 35 1
38 35 36 1
39 34 38 1
40 34 39 1
41 35 40 1
42 35 41 1
43 36 42 1
44 36 43 1
45 44 45 1
46 44 53 1
47 45 46 1
48 45 48 1
49 45 54 1
50 46 47 2
51 46 59 1
52 48 49 1
53 49 50 1
54 50 51 2
55 50 52 1
56 48 55 1
57 48 56 1
58 49 57 1
59 49 58 1
60 59 60 1
61 59 65 1
62 60 61 1
63 60 63 1
64 60 66 1
65 61 62 2
66 61 70 1
67 63 64 1
68 63 67 1
69 63 68 1
70 64 69 1
71 70 71 1
72 70 78 1
73 71 72 1
74 71 74 1
75 71 79 1
76 72 73 2
77 72 89 1
78 74 75 1
79 74 76 1
80 75 77 1
81 74 80 1
82 75 81 1
83 75 82 1
84 76 83 1
85 76 84 1
86 76 85 1
87 77 86 1
88 77 87 1
89 77 88 1
90 89 90 1
91 89 97 1
92 90 91 1
93 90 93 1
94 90 98 1
95 91 92 2
96 91 108 1
97 93 94 1
98 94 95 1
99 94 96 1
100 93 99 1
101 93 100 1
102 94 101 1
103 95 102 1
104 95 103 1
105 95 104 1
106 96 105 1
107 96 106 1
108 96 107 1
109 108 109 1
110 108 116 1
111 109 110 1
112 109 112 1
113 109 117 1
114 110 111 2
115 110 120 1
116 112 113 1
117 113 114 2
118 113 115 1
119 112 118 1
120 112 119 1
121 120 121 1
122 120 129 1
123 121 122 1
124 121 124 1
125 121 130 1
126 122 123 2
127 122 135 1
128 124 125 1
129 125 126 1
130 126 127 2
131 126 128 1
132 124 131 1
133 124 132 1
134 125 133 1
135 125 134 1
136 135 136 1
137 135 145 1
138 136 137 1
139 136 139 1
140 136 146 1
141 137 138 2
142 137 152 1
143 139 140 1
144 140 141 2
145 141 144 1
146 140 142 1
147 142 143 2
148 143 144 1
149 139 147 1
150 139 148 1
151 141 149 1
152 143 150 1
153 144 151 1
154 152 153 1
155 152 159 1
156 153 154 1
157 153 156 1
158 153 160 1
159 154 155 2
160 154 168 1
161 156 157 1
162 156 158 1
163 156 161 1
164 157 162 1
165 157 163 1
166 157 164 1
167 158 165 1
168 158 166 1
169 158 167 1
170 168 169 1
171 168 177 1
172 169 170 1
173 169 172 1
174 169 178 1
175 170 171 2
176 170 185 1
177 172 173 1
178 173 174 1
179 174 175 1
180 174 176 2
181 172 179 1
182 172 180 1
183 173 181 1
184 173 182 1
185 175 183 1
186 175 184 1
187 185 186 1
188 185 196 1
189 186 187 1
190 186 189 1
191 186 197 1
192 187 188 2
193 187 209 1
194 189 190 1
195 190 191 1
196 191 192 1
197 192 193 1
198 193 194 2
199 193 195 1
200 189 198 1
201 189 199 1
202 190 200 1
203 190 201 1
204 191 202 1
205 191 203 1
206 192 204 1
207 194 205 1
208 194 206 1
209 195 207 1
210 195 208 1
211 209 210 1
212 209 218 1
213 210 211 1
214 210 213 1
215 210 219 1
216 211 212 2
217 211 231 1
218 213 214 1
219 214 215 1
220 215 216 1
221 216 217 1
222 217 230 1
223 213 220 1
224 213 221 1
225 214 222 1
226 214 223 1
227 215 224 1
228 215 225 1
229 216 226 1
230 216 227 1
231 217 228 1
232 217 229 1
233 231 232 1
234 231 239 1
235 232 233 1
236 232 235 1
237 232 240 1
238 233 234 2
239 233 248 1
240 235 236 1
241 236 237 1
242 237 238 1
243 235 241 1
244 235 242 1
245 236 243 1
246 236 244 1
247 238 245 1
248 238 246 1
249 238 247 1
250 248 249 1
251 248 259 1
252 249 250 1
253 249 252 1
254 249 260 1
255 250 251 2
256 252 253 1
257 253 254 1
258 254 255 1
259 255 256 1
260 256 257 2
261 256 258 1
262 252 261 1
263 252 262 1
264 253 263 1
265 253 264 1
266 254 265 1
267 254 266 1
268 255 267 1
269 257 268 1
270 257 269 1
271 258 270 1
272 258 271 1
@<TRIPOS>SUBSTRUCTURE
1	GLU1	1	RESIDUE	1 ****	GLU
2	ASN2	16	RESIDUE	1 ****	ASN
3	PRO3	30	RESIDUE	1 ****	PRO
4	GLU4	44	RESIDUE	1 ****	GLU
5	SER5	59	RESIDUE	1 ****	SER
6	ILE6	70	RESIDUE	1 ****	ILE
7	LEU7	89	RESIDUE	1 ****	LEU
8	ASP8	108	RESIDUE	1 ****	ASP
9	GLU9	120	RESIDUE	1 ****	GLU
10	HIS10	135	RESIDUE	1 ****	HIS
11	VAL11	152	RESIDUE	1 ****	VAL
12	GLN12	168	RESIDUE	1 ****	GLN
13	ARG13	185	RESIDUE	1 ****	ARG
14	LYS14	209	RESIDUE	1 ****	LYS
15	MET15	231	RESIDUE	1 ****	MET
16	ARG16	248	RESIDUE	1 ****	ARG
