REMARK WARNING: 32 MAX_TORS EXCEEDED!!!
REMARK  68 active torsions:
REMARK  status: ('A' for Active; 'I' for Inactive)
REMARK    1  A    between atoms: N_1  and  CA_2 
REMARK    2  A    between atoms: CA_2  and  C_3 
REMARK    3  A    between atoms: CA_2  and  CB_5 
REMARK       I    between atoms: C_3  and  N_11 
REMARK    4  A    between atoms: CB_5  and  CG_6 
REMARK    5  A    between atoms: CG_6  and  CD_7 
REMARK    6  A    between atoms: N_11  and  CA_12 
REMARK    7  A    between atoms: CA_12  and  C_13 
REMARK    8  A    between atoms: CA_12  and  CB_15 
REMARK       I    between atoms: C_13  and  N_22 
REMARK    9  A    between atoms: CB_15  and  CG_16 
REMARK       I    between atoms: CG_16  and  ND2_17 
REMARK   10  A    between atoms: CA_23  and  C_24 
REMARK       I    between atoms: C_24  and  N_29 
REMARK   11  A    between atoms: N_29  and  CA_30 
REMARK   12  A    between atoms: CA_30  and  C_31 
REMARK   13  A    between atoms: CA_30  and  CB_33 
REMARK       I    between atoms: C_31  and  N_39 
REMARK   14  A    between atoms: CB_33  and  CG_34 
REMARK   15  A    between atoms: CG_34  and  CD_35 
REMARK   16  A    between atoms: N_39  and  CA_40 
REMARK   17  A    between atoms: CA_40  and  C_41 
REMARK   18  A    between atoms: CA_40  and  CB_43 
REMARK       I    between atoms: C_41  and  N_47 
REMARK   19  A    between atoms: CB_43  and  SG_44 
REMARK   20  A    between atoms: N_47  and  CA_48 
REMARK   21  A    between atoms: CA_48  and  C_49 
REMARK   22  A    between atoms: CA_48  and  CB_51 
REMARK       I    between atoms: C_49  and  N_56 
REMARK   23  A    between atoms: CB_51  and  CG1_52 
REMARK   24  A    between atoms: N_56  and  CA_57 
REMARK   25  A    between atoms: CA_57  and  C_58 
REMARK   26  A    between atoms: CA_57  and  CB_60 
REMARK       I    between atoms: C_58  and  N_65 
REMARK   27  A    between atoms: CB_60  and  CG_61 
REMARK   28  A    between atoms: N_65  and  CA_66 
REMARK   29  A    between atoms: CA_66  and  C_67 
REMARK   30  A    between atoms: CA_66  and  CB_69 
REMARK       I    between atoms: C_67  and  N_74 
REMARK   31  A    between atoms: CB_69  and  CG_70 
REMARK   32  A    between atoms: N_74  and  CA_75 
REMARK   33  A    between atoms: CA_75  and  C_76 
REMARK   34  A    between atoms: CA_75  and  CB_78 
REMARK       I    between atoms: C_76  and  N_84 
REMARK   35  A    between atoms: CB_78  and  CG_79 
REMARK   36  A    between atoms: CG_79  and  CD_80 
REMARK   37  A    between atoms: N_84  and  CA_85 
REMARK   38  A    between atoms: CA_85  and  C_86 
REMARK   39  A    between atoms: CA_85  and  CB_88 
REMARK       I    between atoms: C_86  and  N_96 
REMARK   40  A    between atoms: CB_88  and  CG_89 
REMARK   41  A    between atoms: N_96  and  CA_97 
REMARK   42  A    between atoms: CA_97  and  C_98 
REMARK   43  A    between atoms: CA_97  and  CB_100 
REMARK       I    between atoms: C_98  and  N_104 
REMARK   44  A    between atoms: N_104  and  CA_105 
REMARK   45  A    between atoms: CA_105  and  C_106 
REMARK   46  A    between atoms: CA_105  and  CB_108 
REMARK       I    between atoms: C_106  and  N_116 
REMARK   47  A    between atoms: CB_108  and  CG_109 
REMARK   48  A    between atoms: CG_109  and  CD_110 
REMARK       I    between atoms: CD_110  and  NE2_111 
REMARK   49  A    between atoms: N_116  and  CA_117 
REMARK   50  A    between atoms: CA_117  and  C_118 
REMARK   51  A    between atoms: CA_117  and  CB_120 
REMARK       I    between atoms: C_118  and  N_133 
REMARK   52  A    between atoms: CB_120  and  CG_121 
REMARK   53  A    between atoms: CG_121  and  CD_122 
REMARK   54  A    between atoms: CD_122  and  NE_123 
REMARK       I    between atoms: NE_123  and  CZ_124 
REMARK       I    between atoms: CZ_124  and  NH1_125 
REMARK       I    between atoms: CZ_124  and  NH2_126 
REMARK   55  A    between atoms: N_133  and  CA_134 
REMARK   56  A    between atoms: CA_134  and  C_135 
REMARK   57  A    between atoms: CA_134  and  CB_137 
REMARK       I    between atoms: C_135  and  N_141 
REMARK   58  A    between atoms: N_141  and  CA_142 
REMARK   59  A    between atoms: CA_142  and  C_143 
REMARK   60  A    between atoms: CA_142  and  CB_145 
REMARK       I    between atoms: C_143  and  N_150 
REMARK   61  A    between atoms: CB_145  and  CG_146 
REMARK   62  A    between atoms: CG_146  and  SD_147 
REMARK   63  A    between atoms: N_150  and  CA_151 
REMARK   64  A    between atoms: CA_151  and  C_152 
REMARK   65  A    between atoms: CA_151  and  CB_154 
REMARK   66  A    between atoms: CB_154  and  CG_155 
REMARK   67  A    between atoms: CG_155  and  CD_156 
REMARK   68  A    between atoms: CD_156  and  NE_157 
REMARK       I    between atoms: NE_157  and  CZ_158 
REMARK       I    between atoms: CZ_158  and  NH1_159 
ROOT
ATOM      1  C   GLU d   9     796.838 213.047-754.127  0.00  0.00     0.241 C 
ATOM      2  O   GLU d   9     797.502 213.802-754.852  0.00  0.00    -0.271 OA
ATOM      3  N   HIS d  10     796.935 211.772-754.297  0.00  0.00    -0.346 N 
ATOM      4  H   HIS d  10     796.404 211.136-753.720  0.00  0.00     0.163 HD
ENDROOT
BRANCH   1   5
ATOM      5  CA  GLU d   9     795.919 213.574-753.052  0.00  0.00     0.177 C 
BRANCH   5   6
ATOM      6  N   GLU d   9     794.616 212.915-753.109  0.00  0.00    -0.346 N 
ATOM      7  C   ASP d   8     793.937 212.965-754.205  0.00  0.00     0.241 C 
ATOM      8  O   ASP d   8     794.411 213.571-755.179  0.00  0.00    -0.271 OA
ATOM      9  H   GLU d   9     794.253 212.428-752.302  0.00  0.00     0.163 HD
BRANCH   7  10
ATOM     10  CA  ASP d   8     792.591 212.285-754.263  0.00  0.00     0.186 C 
BRANCH  10  11
ATOM     11  N   ASP d   8     792.662 210.935-753.711  0.00  0.00    -0.346 N 
ATOM     12  C   LEU d   7     793.500 210.095-754.217  0.00  0.00     0.241 C 
ATOM     13  O   LEU d   7     794.221 210.459-755.158  0.00  0.00    -0.271 OA
ATOM     14  H   ASP d   8     792.064 210.663-752.944  0.00  0.00     0.163 HD
BRANCH  12  15
ATOM     15  CA  LEU d   7     793.573 208.699-753.645  0.00  0.00     0.177 C 
BRANCH  15  16
ATOM     16  N   LEU d   7     793.626 208.735-752.187  0.00  0.00    -0.346 N 
ATOM     17  C   ILE d   6     794.571 209.398-751.612  0.00  0.00     0.241 C 
ATOM     18  O   ILE d   6     795.406 209.987-752.315  0.00  0.00    -0.271 OA
ATOM     19  H   LEU d   7     792.934 208.247-751.636  0.00  0.00     0.163 HD
BRANCH  17  20
ATOM     20  CA  ILE d   6     794.627 209.435-750.104  0.00  0.00     0.180 C 
BRANCH  20  21
ATOM     21  N   ILE d   6     793.313 209.729-749.539  0.00  0.00    -0.346 N 
ATOM     22  C   CYS d   5     792.708 210.812-749.893  0.00  0.00     0.241 C 
ATOM     23  O   CYS d   5     793.260 211.571-750.702  0.00  0.00    -0.271 OA
ATOM     24  H   ILE d   6     792.885 209.094-748.880  0.00  0.00     0.163 HD
BRANCH  22  25
ATOM     25  CA  CYS d   5     791.349 211.116-749.308  0.00  0.00     0.185 C 
BRANCH  25  26
ATOM     26  N   CYS d   5     790.480 209.944-749.368  0.00  0.00    -0.345 N 
ATOM     27  C   GLU d   4     790.253 209.391-750.511  0.00  0.00     0.241 C 
ATOM     28  O   GLU d   4     790.779 209.871-751.526  0.00  0.00    -0.271 OA
ATOM     29  H   CYS d   5     790.063 209.572-748.527  0.00  0.00     0.163 HD
BRANCH  27  30
ATOM     30  CA  GLU d   4     789.354 208.180-750.572  0.00  0.00     0.177 C 
BRANCH  30  31
ATOM     31  N   GLU d   4     789.714 207.209-749.543  0.00  0.00    -0.346 N 
ATOM     32  C   PRO d   3     790.919 206.749-749.510  0.00  0.00     0.241 C 
ATOM     33  O   PRO d   3     791.742 207.133-750.342  0.00  0.00    -0.271 OA
ATOM     34  H   GLU d   4     789.030 206.902-748.866  0.00  0.00     0.163 HD
BRANCH  32  35
ATOM     35  CA  PRO d   3     791.317 205.726-748.433  0.00  0.00     0.179 C 
ATOM     36  N   PRO d   3     790.865 206.135-747.112  0.00  0.00    -0.337 N 
ATOM     37  C   ASN d   2     791.386 207.130-746.478  0.00  0.00     0.243 C 
ATOM     38  CD  PRO d   3     789.787 205.342-746.563  0.00  0.00     0.127 C 
ATOM     39  O   ASN d   2     792.301 207.761-747.006  0.00  0.00    -0.271 OA
ATOM     40  CG  PRO d   3     789.329 204.523-747.773  0.00  0.00     0.022 C 
ATOM     41  CB  PRO d   3     790.613 204.371-748.603  0.00  0.00     0.037 C 
BRANCH  37  42
ATOM     42  CA  ASN d   2     790.855 207.486-745.109  0.00  0.00     0.185 C 
BRANCH  42  43
ATOM     43  N   ASN d   2     789.396 207.524-745.109  0.00  0.00    -0.346 N 
ATOM     44  C   GLU d   1     788.791 208.310-745.934  0.00  0.00     0.242 C 
ATOM     45  O   GLU d   1     789.467 209.009-746.703  0.00  0.00    -0.271 OA
ATOM     46  H   ASN d   2     788.867 206.944-744.472  0.00  0.00     0.163 HD
BRANCH  44  47
ATOM     47  CA  GLU d   1     787.282 208.350-745.934  0.00  0.00     0.191 C 
BRANCH  47  48
ATOM     48  N   GLU d   1     786.723 207.001-745.934  0.00  0.00    -0.326 NA
ATOM     49  H   GLU d   1     787.350 206.122-745.934  0.00  0.00     0.180 HD
ENDBRANCH  47  48
BRANCH  47  50
ATOM     50  CB  GLU d   1     786.759 209.135-744.697  0.00  0.00     0.047 C 
BRANCH  50  51
ATOM     51  CG  GLU d   1     787.234 210.620-744.586  0.00  0.00     0.116 C 
BRANCH  51  52
ATOM     52  CD  GLU d   1     786.810 211.424-743.371  0.00  0.00     0.172 C 
ATOM     53  OE1 GLU d   1     786.082 210.922-742.493  0.00  0.00    -0.648 OA
ATOM     54  OE2 GLU d   1     787.240 212.594-743.299  0.00  0.00    -0.648 OA
ENDBRANCH  51  52
ENDBRANCH  50  51
ENDBRANCH  47  50
ENDBRANCH  44  47
ENDBRANCH  42  43
BRANCH  42  55
ATOM     55  CB  ASN d   2     791.347 206.463-744.045  0.00  0.00     0.137 C 
BRANCH  55  56
ATOM     56  CG  ASN d   2     790.884 206.686-742.601  0.00  0.00     0.217 C 
ATOM     57  ND2 ASN d   2     791.478 207.601-741.883  0.00  0.00    -0.370 N 
ATOM     58 21HD ASN d   2     790.998 207.774-740.997  0.00  0.00     0.159 HD
ATOM     59 22HD ASN d   2     792.180 208.173-742.352  0.00  0.00     0.159 HD
ATOM     60  OD1 ASN d   2     789.963 206.053-742.107  0.00  0.00    -0.274 OA
ENDBRANCH  55  56
ENDBRANCH  42  55
ENDBRANCH  37  42
ENDBRANCH  32  35
ENDBRANCH  30  31
BRANCH  30  61
ATOM     61  CB  GLU d   4     787.865 208.598-750.402  0.00  0.00     0.045 C 
BRANCH  61  62
ATOM     62  CG  GLU d   4     787.317 209.602-751.468  0.00  0.00     0.116 C 
BRANCH  62  63
ATOM     63  CD  GLU d   4     785.890 210.098-751.324  0.00  0.00     0.172 C 
ATOM     64  OE1 GLU d   4     785.164 209.700-750.393  0.00  0.00    -0.648 OA
ATOM     65  OE2 GLU d   4     785.501 210.927-752.172  0.00  0.00    -0.648 OA
ENDBRANCH  62  63
ENDBRANCH  61  62
ENDBRANCH  30  61
ENDBRANCH  27  30
ENDBRANCH  25  26
BRANCH  25  66
ATOM     66  CB  CYS d   5     791.431 211.591-747.844  0.00  0.00     0.105 C 
BRANCH  66  67
ATOM     67  SG  CYS d   5     792.346 213.145-747.726  0.00  0.00    -0.180 SA
ATOM     68  HG  CYS d   5     793.465 212.633-747.219  0.00  0.00     0.101 HD
ENDBRANCH  66  67
ENDBRANCH  25  66
ENDBRANCH  22  25
ENDBRANCH  20  21
BRANCH  20  69
ATOM     69  CB  ILE d   6     795.227 208.098-749.504  0.00  0.00     0.013 C 
ATOM     70  CG2 ILE d   6     796.669 207.798-750.018  0.00  0.00     0.012 C 
BRANCH  69  71
ATOM     71  CG1 ILE d   6     795.245 208.035-747.943  0.00  0.00     0.002 C 
ATOM     72  CD1 ILE d   6     795.515 206.646-747.329  0.00  0.00     0.005 C 
ENDBRANCH  69  71
ENDBRANCH  20  69
ENDBRANCH  17  20
ENDBRANCH  15  16
BRANCH  15  73
ATOM     73  CB  LEU d   7     792.371 207.839-754.127  0.00  0.00     0.038 C 
BRANCH  73  74
ATOM     74  CG  LEU d   7     792.298 206.359-753.662  0.00  0.00    -0.020 C 
ATOM     75  CD1 LEU d   7     791.109 205.653-754.329  0.00  0.00     0.009 C 
ATOM     76  CD2 LEU d   7     793.592 205.581-753.953  0.00  0.00     0.009 C 
ENDBRANCH  73  74
ENDBRANCH  15  73
ENDBRANCH  12  15
ENDBRANCH  10  11
BRANCH  10  77
ATOM     77  CB  ASP d   8     791.512 213.122-753.522  0.00  0.00     0.147 C 
BRANCH  77  78
ATOM     78  CG  ASP d   8     791.293 214.544-754.062  0.00  0.00     0.175 C 
ATOM     79  OD1 ASP d   8     791.358 214.743-755.292  0.00  0.00    -0.648 OA
ATOM     80  OD2 ASP d   8     791.099 215.469-753.246  0.00  0.00    -0.648 OA
ENDBRANCH  77  78
ENDBRANCH  10  77
ENDBRANCH   7  10
ENDBRANCH   5   6
BRANCH   5  81
ATOM     81  CB  GLU d   9     796.551 213.365-751.646  0.00  0.00     0.045 C 
BRANCH  81  82
ATOM     82  CG  GLU d   9     797.933 214.058-751.415  0.00  0.00     0.116 C 
BRANCH  82  83
ATOM     83  CD  GLU d   9     798.634 213.845-750.086  0.00  0.00     0.172 C 
ATOM     84  OE1 GLU d   9     798.112 213.153-749.191  0.00  0.00    -0.648 OA
ATOM     85  OE2 GLU d   9     799.753 214.383-749.953  0.00  0.00    -0.648 OA
ENDBRANCH  82  83
ENDBRANCH  81  82
ENDBRANCH   5  81
ENDBRANCH   1   5
BRANCH   3  86
ATOM     86  CA  HIS d  10     797.824 211.262-755.338  0.00  0.00     0.182 C 
BRANCH  86  87
ATOM     87  C   HIS d  10     797.458 211.827-756.689  0.00  0.00     0.241 C 
ATOM     88  O   HIS d  10     798.311 212.293-757.459  0.00  0.00    -0.271 OA
ATOM     89  N   VAL d  11     796.221 211.826-757.053  0.00  0.00    -0.346 N 
ATOM     90  H   VAL d  11     795.508 211.452-756.443  0.00  0.00     0.163 HD
BRANCH  89  91
ATOM     91  CA  VAL d  11     795.867 212.372-758.359  0.00  0.00     0.180 C 
BRANCH  91  92
ATOM     92  C   VAL d  11     796.330 213.803-758.491  0.00  0.00     0.241 C 
ATOM     93  O   VAL d  11     796.932 214.209-759.493  0.00  0.00    -0.271 OA
ATOM     94  N   GLN d  12     796.092 214.628-757.528  0.00  0.00    -0.346 N 
ATOM     95  H   GLN d  12     795.603 214.321-756.699  0.00  0.00     0.163 HD
BRANCH  94  96
ATOM     96  CA  GLN d  12     796.540 216.011-757.654  0.00  0.00     0.177 C 
BRANCH  96  97
ATOM     97  C   GLN d  12     798.030 216.080-757.890  0.00  0.00     0.241 C 
ATOM     98  O   GLN d  12     798.517 216.789-758.768  0.00  0.00    -0.271 OA
ATOM     99  N   ARG d  13     798.814 215.373-757.149  0.00  0.00    -0.346 N 
ATOM    100  H   ARG d  13     798.438 214.782-756.421  0.00  0.00     0.163 HD
BRANCH  99 101
ATOM    101  CA  ARG d  13     800.255 215.440-757.378  0.00  0.00     0.176 C 
BRANCH 101 102
ATOM    102  C   ARG d  13     800.592 215.069-758.803  0.00  0.00     0.241 C 
ATOM    103  O   ARG d  13     801.361 215.742-759.486  0.00  0.00    -0.271 OA
ATOM    104  N   VAL d  14     800.057 214.015-759.319  0.00  0.00    -0.346 N 
ATOM    105  H   VAL d  14     799.422 213.446-758.778  0.00  0.00     0.163 HD
BRANCH 104 106
ATOM    106  CA  VAL d  14     800.384 213.657-760.696  0.00  0.00     0.180 C 
BRANCH 106 107
ATOM    107  C   VAL d  14     800.054 214.787-761.642  0.00  0.00     0.241 C 
ATOM    108  O   VAL d  14     800.848 215.170-762.510  0.00  0.00    -0.271 OA
ATOM    109  N   MET d  15     798.909 215.373-761.541  0.00  0.00    -0.346 N 
ATOM    110  H   MET d  15     798.244 215.079-760.840  0.00  0.00     0.163 HD
BRANCH 109 111
ATOM    111  CA  MET d  15     798.589 216.466-762.454  0.00  0.00     0.177 C 
BRANCH 111 112
ATOM    112  C   MET d  15     799.618 217.566-762.364  0.00  0.00     0.241 C 
ATOM    113  O   MET d  15     800.122 218.078-763.376  0.00  0.00    -0.271 OA
ATOM    114  N   ARG d  16     799.986 217.987-761.202  0.00  0.00    -0.347 N 
ATOM    115  H   ARG d  16     799.590 217.586-760.363  0.00  0.00     0.163 HD
BRANCH 114 116
ATOM    116  CA  ARG d  16     800.982 219.051-761.116  0.00  0.00     0.162 C 
BRANCH 116 117
ATOM    117  C   ARG d  16     802.253 218.659-761.831  0.00  0.00     0.219 C 
ATOM    118  O   ARG d  16     802.368 217.583-762.413  0.00  0.00    -0.287 OA
ENDBRANCH 116 117
BRANCH 116 119
ATOM    119  CB  ARG d  16     801.249 219.368-759.617  0.00  0.00     0.035 C 
BRANCH 119 120
ATOM    120  CG  ARG d  16     802.073 220.657-759.343  0.00  0.00     0.023 C 
BRANCH 120 121
ATOM    121  CD  ARG d  16     802.321 220.876-757.841  0.00  0.00     0.138 C 
BRANCH 121 122
ATOM    122  NE  ARG d  16     803.096 222.135-757.639  0.00  0.00    -0.227 N 
ATOM    123  CZ  ARG d  16     803.486 222.617-756.462  0.00  0.00     0.665 C 
ATOM    124  NH1 ARG d  16     803.238 222.032-755.325  0.00  0.00    -0.235 N 
ATOM    125  NH2 ARG d  16     804.149 223.730-756.443  0.00  0.00    -0.235 N 
ATOM    126 11HH ARG d  16     802.713 221.159-755.410  0.00  0.00     0.174 HD
ATOM    127 12HH ARG d  16     803.571 222.467-754.463  0.00  0.00     0.174 HD
ATOM    128 21HH ARG d  16     804.336 224.174-757.344  0.00  0.00     0.174 HD
ATOM    129 22HH ARG d  16     804.439 224.085-755.530  0.00  0.00     0.174 HD
ATOM    130  HE  ARG d  16     803.375 222.717-758.435  0.00  0.00     0.177 HD
ENDBRANCH 121 122
ENDBRANCH 120 121
ENDBRANCH 119 120
ENDBRANCH 116 119
ENDBRANCH 114 116
ENDBRANCH 111 112
BRANCH 111 131
ATOM    131  CB  MET d  15     797.167 217.010-762.146  0.00  0.00     0.045 C 
BRANCH 131 132
ATOM    132  CG  MET d  15     796.006 216.012-762.339  0.00  0.00     0.076 C 
BRANCH 132 133
ATOM    133  SD  MET d  15     794.431 216.877-762.226  0.00  0.00    -0.173 SA
ATOM    134  CE  MET d  15     793.351 215.447-762.092  0.00  0.00     0.089 C 
ENDBRANCH 132 133
ENDBRANCH 131 132
ENDBRANCH 111 131
ENDBRANCH 109 111
ENDBRANCH 106 107
BRANCH 106 135
ATOM    135  CB  VAL d  14     799.613 212.340-761.105  0.00  0.00     0.009 C 
ATOM    136  CG1 VAL d  14     799.703 211.922-762.599  0.00  0.00     0.012 C 
ATOM    137  CG2 VAL d  14     800.044 211.087-760.305  0.00  0.00     0.012 C 
ENDBRANCH 106 135
ENDBRANCH 104 106
ENDBRANCH 101 102
BRANCH 101 138
ATOM    138  CB  ARG d  13     800.967 214.500-756.364  0.00  0.00     0.036 C 
BRANCH 138 139
ATOM    139  CG  ARG d  13     802.512 214.654-756.282  0.00  0.00     0.023 C 
BRANCH 139 140
ATOM    140  CD  ARG d  13     803.139 213.666-755.284  0.00  0.00     0.138 C 
BRANCH 140 141
ATOM    141  NE  ARG d  13     804.616 213.874-755.232  0.00  0.00    -0.227 N 
ATOM    142  CZ  ARG d  13     805.463 213.183-754.476  0.00  0.00     0.665 C 
ATOM    143  NH1 ARG d  13     805.098 212.217-753.680  0.00  0.00    -0.235 N 
ATOM    144  NH2 ARG d  13     806.723 213.482-754.532  0.00  0.00    -0.235 N 
ATOM    145 11HH ARG d  13     804.093 212.031-753.684  0.00  0.00     0.174 HD
ATOM    146 12HH ARG d  13     805.811 211.734-753.131  0.00  0.00     0.174 HD
ATOM    147 21HH ARG d  13     806.991 214.241-755.162  0.00  0.00     0.174 HD
ATOM    148 22HH ARG d  13     807.358 212.941-753.943  0.00  0.00     0.174 HD
ATOM    149  HE  ARG d  13     805.067 214.597-755.802  0.00  0.00     0.177 HD
ENDBRANCH 140 141
ENDBRANCH 139 140
ENDBRANCH 138 139
ENDBRANCH 101 138
ENDBRANCH  99 101
ENDBRANCH  96  97
BRANCH  96 150
ATOM    150  CB  GLN d  12     796.147 216.778-756.371  0.00  0.00     0.044 C 
BRANCH 150 151
ATOM    151  CG  GLN d  12     796.507 218.300-756.339  0.00  0.00     0.105 C 
BRANCH 151 152
ATOM    152  CD  GLN d  12     796.203 219.112-755.073  0.00  0.00     0.215 C 
ATOM    153  NE2 GLN d  12     795.635 218.535-754.045  0.00  0.00    -0.370 N 
ATOM    154 21HE GLN d  12     795.527 219.129-753.222  0.00  0.00     0.159 HD
ATOM    155 22HE GLN d  12     795.472 217.531-754.150  0.00  0.00     0.159 HD
ATOM    156  OE1 GLN d  12     796.504 220.293-754.995  0.00  0.00    -0.274 OA
ENDBRANCH 151 152
ENDBRANCH 150 151
ENDBRANCH  96 150
ENDBRANCH  94  96
ENDBRANCH  91  92
BRANCH  91 157
ATOM    157  CB  VAL d  11     794.306 212.265-758.580  0.00  0.00     0.009 C 
ATOM    158  CG1 VAL d  11     793.738 212.969-759.843  0.00  0.00     0.012 C 
ATOM    159  CG2 VAL d  11     793.782 210.810-758.655  0.00  0.00     0.012 C 
ENDBRANCH  91 157
ENDBRANCH  89  91
ENDBRANCH  86  87
BRANCH  86 160
ATOM    160  CB  HIS d  10     797.661 209.733-755.333  0.00  0.00     0.095 C 
BRANCH 160 161
ATOM    161  CG  HIS d  10     798.947 209.023-755.025  0.00  0.00     0.053 A 
ATOM    162  CD2 HIS d  10     799.327 208.687-753.732  0.00  0.00     0.116 A 
ATOM    163  NE2 HIS d  10     800.542 208.057-753.798  0.00  0.00    -0.359 N 
ATOM    164  CE1 HIS d  10     800.806 208.060-755.133  0.00  0.00     0.207 A 
ATOM    165  2HE HIS d  10     801.109 207.679-753.024  0.00  0.00     0.166 HD
ATOM    166  ND1 HIS d  10     799.900 208.618-755.957  0.00  0.00    -0.247 NA
ENDBRANCH 160 161
ENDBRANCH  86 160
ENDBRANCH   3  86
TORSDOF 68
