@<TRIPOS>MOLECULE
15-7
267 268 16              
SMALL
USER_CHARGES
@<TRIPOS>ATOM
1	   N	2382.701	729.569	-2479.644	N.3	1	GLU1	-0.516	
2	  CA	2383.260	730.918	-2479.644	C.3	1	GLU1	0.040	
3	   C	2384.769	730.878	-2479.644	C.2	1	GLU1	0.537	
4	   O	2385.445	731.577	-2480.413	O.2	1	GLU1	-0.582	
5	  CB	2382.737	731.703	-2478.407	C.3	1	GLU1	0.056	
6	  CG	2383.212	733.188	-2478.296	C.3	1	GLU1	0.014	
7	  CD	2382.788	733.992	-2477.081	C.2	1	GLU1	0.805	
8	 OE1	2382.060	733.490	-2476.203	O.co2	1	GLU1	-0.819	
9	 OE2	2383.218	735.162	-2477.009	O.co2	1	GLU1	-0.819	
10	   H	2383.328	728.690	-2479.644	 H	1	GLU1	0.294	
11	  HA	2382.934	731.436	-2480.564	 H	1	GLU1	0.111	
12	 2HB	2383.026	731.172	-2477.477	 H	1	GLU1	-0.017	
13	 3HB	2381.630	731.693	-2478.394	 H	1	GLU1	-0.017	
14	 2HG	2382.902	733.773	-2479.177	 H	1	GLU1	-0.043	
15	 3HG	2384.312	733.255	-2478.267	 H	1	GLU1	-0.043	
16	   N	2385.373	730.092	-2478.819	N.am	2	ASN2	-0.416	
17	  CA	2386.833	730.053	-2478.819	C.3	2	ASN2	0.014	
18	   C	2387.364	729.698	-2480.188	C.2	2	ASN2	0.597	
19	   O	2388.279	730.328	-2480.716	O.2	2	ASN2	-0.568	
20	  CB	2387.324	729.030	-2477.754	C.3	2	ASN2	-0.204	
21	  CG	2386.861	729.254	-2476.311	C.2	2	ASN2	0.713	
22	 ND2	2387.455	730.169	-2475.593	N.pl3	2	ASN2	-0.919	
23	 OD1	2385.940	728.621	-2475.817	O.2	2	ASN2	-0.593	
24	   H	2384.845	729.513	-2478.183	 H	2	ASN2	0.272	
25	  HA	2387.210	731.063	-2478.573	 H	2	ASN2	0.105	
26	 2HB	2388.428	728.971	-2477.758	 H	2	ASN2	0.080	
27	 3HB	2386.995	728.012	-2478.040	 H	2	ASN2	0.080	
28	1HD2	2386.974	730.342	-2474.707	 H	2	ASN2	0.420	
29	2HD2	2388.157	730.741	-2476.062	 H	2	ASN2	0.420	
30	   N	2386.843	728.703	-2480.822	N.am	3	PRO3	-0.255	
31	  CA	2387.295	728.294	-2482.143	C.3	3	PRO3	-0.027	
32	   C	2386.897	729.317	-2483.220	C.2	3	PRO3	0.590	
33	   O	2387.720	729.700	-2484.052	O.2	3	PRO3	-0.575	
34	  CB	2386.590	726.939	-2482.313	C.3	3	PRO3	-0.007	
35	  CG	2385.307	727.091	-2481.483	C.3	3	PRO3	0.019	
36	  CD	2385.764	727.910	-2480.273	C.3	3	PRO3	0.019	
37	  HA	2388.381	728.173	-2482.156	 H	3	PRO3	0.064	
38	 2HB	2387.213	726.158	-2481.872	 H	3	PRO3	0.025	
39	 3HB	2386.392	726.691	-2483.358	 H	3	PRO3	0.025	
40	 2HG	2384.879	726.129	-2481.192	 H	3	PRO3	0.021	
41	 3HG	2384.570	727.663	-2482.051	 H	3	PRO3	0.021	
42	 2HD	2386.153	727.260	-2479.486	 H	3	PRO3	0.039	
43	 3HD	2384.968	728.546	-2479.880	 H	3	PRO3	0.039	
44	   N	2385.692	729.777	-2483.253	N.am	4	GLU4	-0.516	
45	  CA	2385.333	730.748	-2484.283	C.3	4	GLU4	0.040	
46	   C	2386.232	731.959	-2484.221	C.2	4	GLU4	0.537	
47	   O	2386.759	732.439	-2485.235	O.2	4	GLU4	-0.582	
48	  CB	2383.844	731.168	-2484.113	C.3	4	GLU4	0.056	
49	  CG	2383.297	732.171	-2485.179	C.3	4	GLU4	0.014	
50	  CD	2381.871	732.668	-2485.036	C.2	4	GLU4	0.805	
51	 OE1	2381.144	732.270	-2484.105	O.co2	4	GLU4	-0.819	
52	 OE2	2381.482	733.498	-2485.884	O.co2	4	GLU4	-0.819	
53	   H	2385.008	729.471	-2482.576	 H	4	GLU4	0.294	
54	  HA	2385.465	730.278	-2485.274	 H	4	GLU4	0.111	
55	 2HB	2383.692	731.607	-2483.106	 H	4	GLU4	-0.017	
56	 3HB	2383.197	730.270	-2484.119	 H	4	GLU4	-0.017	
57	 2HG	2383.379	731.756	-2486.197	 H	4	GLU4	-0.043	
58	 3HG	2383.885	733.103	-2485.190	 H	4	GLU4	-0.043	
59	   N	2386.459	732.512	-2483.078	N.am	5	SER5	-0.416	
60	  CA	2387.329	733.683	-2483.019	C.3	5	SER5	-0.025	
61	   C	2388.688	733.377	-2483.604	C.2	5	SER5	0.597	
62	   O	2389.236	734.130	-2484.409	O.2	5	SER5	-0.568	
63	  CB	2387.440	734.215	-2481.569	C.3	5	SER5	0.212	
64	  OG	2388.171	733.335	-2480.708	O.3	5	SER5	-0.655	
65	   H	2386.042	732.140	-2482.237	 H	5	SER5	0.272	
66	  HA	2386.880	734.473	-2483.648	 H	5	SER5	0.084	
67	 2HB	2386.440	734.409	-2481.135	 H	5	SER5	0.035	
68	 3HB	2387.946	735.201	-2481.571	 H	5	SER5	0.035	
69	  HG	2387.682	732.511	-2480.657	 H	5	SER5	0.428	
70	   N	2389.292	732.293	-2483.250	N.am	6	ILE6	-0.416	
71	  CA	2390.605	731.998	-2483.816	C.3	6	ILE6	-0.060	
72	   C	2390.548	731.960	-2485.324	C.2	6	ILE6	0.597	
73	   O	2391.383	732.548	-2486.028	O.2	6	ILE6	-0.568	
74	  CB	2391.205	730.662	-2483.216	C.3	6	ILE6	0.130	
75	 CG1	2391.223	730.599	-2481.655	C.3	6	ILE6	-0.043	
76	 CG2	2392.646	730.359	-2483.731	C.3	6	ILE6	-0.320	
77	 CD1	2391.493	729.210	-2481.040	C.3	6	ILE6	-0.066	
78	   H	2388.863	731.659	-2482.591	 H	6	ILE6	0.272	
79	  HA	2391.280	732.832	-2483.548	 H	6	ILE6	0.087	
80	  HB	2390.546	729.836	-2483.560	 H	6	ILE6	0.019	
81	2HG1	2390.241	730.919	-2481.259	 H	6	ILE6	0.024	
82	3HG1	2391.939	731.341	-2481.250	 H	6	ILE6	0.024	
83	1HG2	2392.705	730.266	-2484.829	 H	6	ILE6	0.088	
84	2HG2	2393.368	731.141	-2483.428	 H	6	ILE6	0.088	
85	3HG2	2393.035	729.397	-2483.352	 H	6	ILE6	0.088	
86	1HD1	2390.764	728.456	-2481.395	 H	6	ILE6	0.019	
87	2HD1	2392.503	728.831	-2481.275	 H	6	ILE6	0.019	
88	3HD1	2391.416	729.240	-2479.937	 H	6	ILE6	0.019	
89	   N	2389.602	731.297	-2485.897	N.am	7	LEU7	-0.416	
90	  CA	2389.547	731.261	-2487.356	C.3	7	LEU7	-0.052	
91	   C	2389.475	732.656	-2487.929	C.2	7	LEU7	0.597	
92	   O	2390.196	733.018	-2488.871	O.2	7	LEU7	-0.568	
93	  CB	2388.344	730.401	-2487.836	C.3	7	LEU7	-0.110	
94	  CG	2388.271	728.922	-2487.370	C.3	7	LEU7	0.353	
95	 CD1	2387.081	728.216	-2488.035	C.3	7	LEU7	-0.412	
96	 CD2	2389.564	728.142	-2487.661	C.3	7	LEU7	-0.412	
97	   H	2388.910	730.810	-2485.346	 H	7	LEU7	0.272	
98	  HA	2390.489	730.821	-2487.730	 H	7	LEU7	0.092	
99	 2HB	2388.321	730.417	-2488.944	 H	7	LEU7	0.046	
100	 3HB	2387.404	730.904	-2487.532	 H	7	LEU7	0.046	
101	  HG	2388.101	728.914	-2486.272	 H	7	LEU7	-0.036	
102	1HD1	2386.124	728.726	-2487.812	 H	7	LEU7	0.100	
103	2HD1	2387.180	728.176	-2489.136	 H	7	LEU7	0.100	
104	3HD1	2386.973	727.175	-2487.679	 H	7	LEU7	0.100	
105	1HD2	2389.839	728.172	-2488.731	 H	7	LEU7	0.100	
106	2HD2	2390.417	728.553	-2487.090	 H	7	LEU7	0.100	
107	3HD2	2389.482	727.080	-2487.365	 H	7	LEU7	0.100	
108	   N	2388.638	733.498	-2487.423	N.am	8	ASP8	-0.516	
109	  CA	2388.569	734.847	-2487.977	C.3	8	ASP8	0.038	
110	   C	2389.916	735.526	-2487.920	C.2	8	ASP8	0.537	
111	   O	2390.389	736.130	-2488.895	O.2	8	ASP8	-0.582	
112	  CB	2387.491	735.687	-2487.236	C.3	8	ASP8	-0.030	
113	  CG	2387.273	737.107	-2487.777	C.2	8	ASP8	0.799	
114	 OD1	2387.337	737.306	-2489.008	O.co2	8	ASP8	-0.801	
115	 OD2	2387.082	738.034	-2486.962	O.co2	8	ASP8	-0.801	
116	   H	2388.041	733.227	-2486.655	 H	8	ASP8	0.294	
117	  HA	2388.286	734.768	-2489.044	 H	8	ASP8	0.088	
118	 2HB	2387.748	735.771	-2486.164	 H	8	ASP8	-0.012	
119	 3HB	2386.512	735.182	-2487.269	 H	8	ASP8	-0.012	
120	   N	2390.596	735.476	-2486.825	N.am	9	GLU9	-0.516	
121	  CA	2391.899	736.133	-2486.770	C.3	9	GLU9	0.040	
122	   C	2392.816	735.605	-2487.846	C.2	9	GLU9	0.537	
123	   O	2393.480	736.358	-2488.572	O.2	9	GLU9	-0.582	
124	  CB	2392.532	735.926	-2485.365	C.3	9	GLU9	0.056	
125	  CG	2393.916	736.618	-2485.136	C.3	9	GLU9	0.014	
126	  CD	2394.617	736.405	-2483.808	C.2	9	GLU9	0.805	
127	 OE1	2394.096	735.715	-2482.911	O.co2	9	GLU9	-0.819	
128	 OE2	2395.737	736.942	-2483.677	O.co2	9	GLU9	-0.819	
129	   H	2390.232	734.991	-2486.018	 H	9	GLU9	0.294	
130	  HA	2391.757	737.215	-2486.946	 H	9	GLU9	0.111	
131	 2HB	2392.645	734.842	-2485.161	 H	9	GLU9	-0.017	
132	 3HB	2391.836	736.280	-2484.581	 H	9	GLU9	-0.017	
133	 2HG	2393.844	737.708	-2485.276	 H	9	GLU9	-0.043	
134	 3HG	2394.662	736.272	-2485.870	 H	9	GLU9	-0.043	
135	   N	2392.912	734.329	-2488.015	N.am	10	HIS10	-0.416	
136	  CA	2393.800	733.817	-2489.055	C.3	10	HIS10	-0.058	
137	   C	2393.433	734.381	-2490.407	C.2	10	HIS10	0.597	
138	   O	2394.285	734.845	-2491.179	O.2	10	HIS10	-0.568	
139	  CB	2393.635	732.288	-2489.050	C.3	10	HIS10	-0.007	
140	  CG	2394.920	731.577	-2488.742	C.2	10	HIS10	0.187	
141	 CD2	2395.302	731.243	-2487.449	C.2	10	HIS10	-0.221	
142	 ND1	2395.872	731.171	-2489.674	N.2	10	HIS10	-0.543	
143	 CE1	2396.778	730.613	-2488.851	C.2	10	HIS10	0.163	
144	 NE2	2396.516	730.611	-2487.516	N.pl3	10	HIS10	-0.280	
145	   H	2392.382	733.694	-2487.436	 H	10	HIS10	0.272	
146	  HA	2394.819	734.174	-2488.831	 H	10	HIS10	0.136	
147	 2HB	2393.269	731.921	-2490.029	 H	10	HIS10	0.037	
148	 3HB	2392.879	731.952	-2488.309	 H	10	HIS10	0.037	
149	 2HD	2394.717	731.459	-2486.560	 H	10	HIS10	0.186	
150	 1HE	2397.669	730.191	-2489.298	 H	10	HIS10	0.144	
151	 2HE	2397.083	730.234	-2486.743	 H	10	HIS10	0.334	
152	   N	2392.195	734.381	-2490.770	N.am	11	VAL11	-0.416	
153	  CA	2391.840	734.926	-2492.077	C.3	11	VAL11	-0.087	
154	   C	2392.305	736.357	-2492.210	C.2	11	VAL11	0.597	
155	   O	2392.906	736.761	-2493.213	O.2	11	VAL11	-0.568	
156	  CB	2390.278	734.820	-2492.296	C.3	11	VAL11	0.299	
157	 CG1	2389.710	735.524	-2493.559	C.3	11	VAL11	-0.319	
158	 CG2	2389.753	733.366	-2492.368	C.3	11	VAL11	-0.319	
159	   H	2391.482	734.009	-2490.159	 H	11	VAL11	0.272	
160	  HA	2392.359	734.343	-2492.859	 H	11	VAL11	0.097	
161	  HB	2389.791	735.301	-2491.421	 H	11	VAL11	-0.030	
162	1HG1	2390.148	735.131	-2494.496	 H	11	VAL11	0.079	
163	2HG1	2388.611	735.417	-2493.641	 H	11	VAL11	0.079	
164	3HG1	2389.889	736.616	-2493.550	 H	11	VAL11	0.079	
165	1HG2	2390.043	732.780	-2491.477	 H	11	VAL11	0.079	
166	2HG2	2388.647	733.330	-2492.410	 H	11	VAL11	0.079	
167	3HG2	2390.135	732.825	-2493.254	 H	11	VAL11	0.079	
168	   N	2392.069	737.183	-2491.248	N.am	12	GLN12	-0.416	
169	  CA	2392.518	738.565	-2491.376	C.3	12	GLN12	-0.003	
170	   C	2394.008	738.632	-2491.614	C.2	12	GLN12	0.597	
171	   O	2394.495	739.339	-2492.493	O.2	12	GLN12	-0.568	
172	  CB	2392.127	739.334	-2490.094	C.3	12	GLN12	-0.004	
173	  CG	2392.489	740.855	-2490.063	C.3	12	GLN12	-0.064	
174	  CD	2392.187	741.670	-2488.799	C.2	12	GLN12	0.695	
175	 NE2	2391.620	741.094	-2487.770	N.pl3	12	GLN12	-0.941	
176	 OE1	2392.490	742.851	-2488.722	O.2	12	GLN12	-0.609	
177	   H	2391.580	736.877	-2490.418	 H	12	GLN12	0.272	
178	  HA	2392.018	739.022	-2492.251	 H	12	GLN12	0.085	
179	 2HB	2392.604	738.834	-2489.224	 H	12	GLN12	0.017	
180	 3HB	2391.037	739.227	-2489.930	 H	12	GLN12	0.017	
181	 2HG	2392.011	741.376	-2490.914	 H	12	GLN12	0.035	
182	 3HG	2393.572	740.997	-2490.229	 H	12	GLN12	0.035	
183	1HE2	2391.514	741.689	-2486.946	 H	12	GLN12	0.425	
184	2HE2	2391.456	740.091	-2487.872	 H	12	GLN12	0.425	
185	   N	2394.792	737.925	-2490.873	N.am	13	ARG13	-0.348	
186	  CA	2396.232	737.990	-2491.104	C.3	13	ARG13	-0.264	
187	   C	2396.568	737.618	-2492.529	C.2	13	ARG13	0.734	
188	   O	2397.337	738.289	-2493.214	O.2	13	ARG13	-0.589	
189	  CB	2396.946	737.052	-2490.090	C.3	13	ARG13	-0.001	
190	  CG	2398.491	737.205	-2490.009	C.3	13	ARG13	0.039	
191	  CD	2399.118	736.218	-2489.011	C.3	13	ARG13	0.049	
192	  NE	2400.595	736.424	-2488.961	N.pl3	13	ARG13	-0.530	
193	  CZ	2401.443	735.733	-2488.206	C.cat	13	ARG13	0.808	
194	 NH1	2401.078	734.770	-2487.407	N.pl3	13	ARG13	-0.863	
195	 NH2	2402.703	736.032	-2488.263	N.pl3	13	ARG13	-0.863	
196	   H	2394.416	737.336	-2490.144	 H	13	ARG13	0.275	
197	  HA	2396.557	739.036	-2490.947	 H	13	ARG13	0.156	
198	 2HB	2396.679	736.001	-2490.328	 H	13	ARG13	0.033	
199	 3HB	2396.521	737.219	-2489.079	 H	13	ARG13	0.033	
200	 2HG	2398.739	738.250	-2489.731	 H	13	ARG13	0.029	
201	 3HG	2398.941	737.048	-2491.011	 H	13	ARG13	0.029	
202	 2HD	2398.873	735.177	-2489.319	 H	13	ARG13	0.069	
203	 3HD	2398.662	736.364	-2488.008	 H	13	ARG13	0.069	
204	  HE	2401.046	737.146	-2489.532	 H	13	ARG13	0.346	
205	1HH1	2400.073	734.584	-2487.410	 H	13	ARG13	0.448	
206	2HH1	2401.791	734.287	-2486.858	 H	13	ARG13	0.448	
207	1HH2	2402.970	736.789	-2488.895	 H	13	ARG13	0.448	
208	2HH2	2403.338	735.490	-2487.674	 H	13	ARG13	0.448	
209	   N	2396.031	736.563	-2493.042	N.am	14	VAL14	-0.416	
210	  CA	2396.356	736.203	-2494.420	C.3	14	VAL14	-0.087	
211	   C	2396.026	737.333	-2495.366	C.2	14	VAL14	0.597	
212	   O	2396.819	737.714	-2496.236	O.2	14	VAL14	-0.568	
213	  CB	2395.583	734.886	-2494.826	C.3	14	VAL14	0.299	
214	 CG1	2395.672	734.467	-2496.319	C.3	14	VAL14	-0.319	
215	 CG2	2396.015	733.634	-2494.025	C.3	14	VAL14	-0.319	
216	   H	2395.396	735.995	-2492.500	 H	14	VAL14	0.272	
217	  HA	2397.444	736.026	-2494.495	 H	14	VAL14	0.097	
218	  HB	2394.507	735.058	-2494.610	 H	14	VAL14	-0.030	
219	1HG1	2396.713	734.289	-2496.648	 H	14	VAL14	0.079	
220	2HG1	2395.098	733.544	-2496.531	 H	14	VAL14	0.079	
221	3HG1	2395.243	735.229	-2496.998	 H	14	VAL14	0.079	
222	1HG2	2395.928	733.793	-2492.934	 H	14	VAL14	0.079	
223	2HG2	2395.378	732.758	-2494.256	 H	14	VAL14	0.079	
224	3HG2	2397.062	733.343	-2494.231	 H	14	VAL14	0.079	
225	   N	2394.882	737.919	-2495.264	N.am	15	LEU15	-0.416	
226	  CA	2394.562	739.011	-2496.179	C.3	15	LEU15	-0.052	
227	   C	2395.595	740.109	-2496.090	C.2	15	LEU15	0.597	
228	   O	2396.101	740.621	-2497.100	O.2	15	LEU15	-0.568	
229	  CB	2393.137	739.565	-2495.893	C.3	15	LEU15	-0.110	
230	  CG	2391.941	738.579	-2495.972	C.3	15	LEU15	0.353	
231	 CD1	2390.619	739.333	-2495.770	C.3	15	LEU15	-0.412	
232	 CD2	2391.897	737.804	-2497.300	C.3	15	LEU15	-0.412	
233	   H	2394.216	737.627	-2494.562	 H	15	LEU15	0.272	
234	  HA	2394.608	738.626	-2497.213	 H	15	LEU15	0.092	
235	 2HB	2392.941	740.405	-2496.587	 H	15	LEU15	0.046	
236	 3HB	2393.133	740.030	-2494.886	 H	15	LEU15	0.046	
237	  HG	2392.043	737.844	-2495.145	 H	15	LEU15	-0.036	
238	1HD1	2390.597	739.871	-2494.802	 H	15	LEU15	0.100	
239	2HD1	2390.439	740.083	-2496.563	 H	15	LEU15	0.100	
240	3HD1	2389.754	738.646	-2495.768	 H	15	LEU15	0.100	
241	1HD2	2391.872	738.476	-2498.176	 H	15	LEU15	0.100	
242	2HD2	2392.782	737.149	-2497.412	 H	15	LEU15	0.100	
243	3HD2	2391.015	737.138	-2497.361	 H	15	LEU15	0.100	
244	   N	2395.963	740.528	-2494.927	N.am	16	ARG16	-0.348	
245	  CA	2396.961	741.590	-2494.840	C.3	16	ARG16	-0.264	
246	   C	2398.232	741.195	-2495.555	C.2	16	ARG16	0.734	
247	   O	2398.345	740.119	-2496.137	O.2	16	ARG16	-0.589	
248	  CB	2397.229	741.906	-2493.341	C.3	16	ARG16	-0.001	
249	  CG	2398.056	743.193	-2493.065	C.3	16	ARG16	0.039	
250	  CD	2398.304	743.410	-2491.564	C.3	16	ARG16	0.049	
251	  NE	2399.082	744.667	-2491.360	N.pl3	16	ARG16	-0.530	
252	  CZ	2399.473	745.147	-2490.183	C.cat	16	ARG16	0.808	
253	 NH1	2399.222	744.562	-2489.046	N.pl3	16	ARG16	-0.863	
254	 NH2	2400.139	746.258	-2490.162	N.pl3	16	ARG16	-0.863	
255	   H	2395.566	740.128	-2494.088	 H	16	ARG16	0.275	
256	  HA	2396.555	742.484	-2495.350	 H	16	ARG16	0.156	
257	 2HB	2397.723	741.028	-2492.875	 H	16	ARG16	0.033	
258	 3HB	2396.259	741.988	-2492.809	 H	16	ARG16	0.033	
259	 2HG	2397.528	744.065	-2493.503	 H	16	ARG16	0.029	
260	 3HG	2399.030	743.138	-2493.593	 H	16	ARG16	0.029	
261	 2HD	2398.850	742.534	-2491.150	 H	16	ARG16	0.069	
262	 3HD	2397.330	743.454	-2491.030	 H	16	ARG16	0.069	
263	  HE	2399.363	745.248	-2492.156	 H	16	ARG16	0.346	
264	1HH1	2398.695	743.691	-2489.132	 H	16	ARG16	0.448	
265	2HH1	2399.556	744.996	-2488.184	 H	16	ARG16	0.448	
266	1HH2	2400.327	746.702	-2491.063	 H	16	ARG16	0.448	
267	2HH2	2400.429	746.612	-2489.249	 H	16	ARG16	0.448	
@<TRIPOS>BOND
1 1 2 1
2 1 10 1
3 2 3 1
4 2 5 1
5 2 11 1
6 3 4 2
7 3 16 1
8 5 6 1
9 6 7 1
10 7 8 2
11 7 9 1
12 5 12 1
13 5 13 1
14 6 14 1
15 6 15 1
16 16 17 1
17 16 24 1
18 17 18 1
19 17 20 1
20 17 25 1
21 18 19 2
22 18 30 1
23 20 21 1
24 21 22 1
25 21 23 2
26 20 26 1
27 20 27 1
28 22 28 1
29 22 29 1
30 30 31 1
31 30 36 1
32 31 32 1
33 31 34 1
34 31 37 1
35 32 33 2
36 32 44 1
37 34 35 1
38 35 36 1
39 34 38 1
40 34 39 1
41 35 40 1
42 35 41 1
43 36 42 1
44 36 43 1
45 44 45 1
46 44 53 1
47 45 46 1
48 45 48 1
49 45 54 1
50 46 47 2
51 46 59 1
52 48 49 1
53 49 50 1
54 50 51 2
55 50 52 1
56 48 55 1
57 48 56 1
58 49 57 1
59 49 58 1
60 59 60 1
61 59 65 1
62 60 61 1
63 60 63 1
64 60 66 1
65 61 62 2
66 61 70 1
67 63 64 1
68 63 67 1
69 63 68 1
70 64 69 1
71 70 71 1
72 70 78 1
73 71 72 1
74 71 74 1
75 71 79 1
76 72 73 2
77 72 89 1
78 74 75 1
79 74 76 1
80 75 77 1
81 74 80 1
82 75 81 1
83 75 82 1
84 76 83 1
85 76 84 1
86 76 85 1
87 77 86 1
88 77 87 1
89 77 88 1
90 89 90 1
91 89 97 1
92 90 91 1
93 90 93 1
94 90 98 1
95 91 92 2
96 91 108 1
97 93 94 1
98 94 95 1
99 94 96 1
100 93 99 1
101 93 100 1
102 94 101 1
103 95 102 1
104 95 103 1
105 95 104 1
106 96 105 1
107 96 106 1
108 96 107 1
109 108 109 1
110 108 116 1
111 109 110 1
112 109 112 1
113 109 117 1
114 110 111 2
115 110 120 1
116 112 113 1
117 113 114 2
118 113 115 1
119 112 118 1
120 112 119 1
121 120 121 1
122 120 129 1
123 121 122 1
124 121 124 1
125 121 130 1
126 122 123 2
127 122 135 1
128 124 125 1
129 125 126 1
130 126 127 2
131 126 128 1
132 124 131 1
133 124 132 1
134 125 133 1
135 125 134 1
136 135 136 1
137 135 145 1
138 136 137 1
139 136 139 1
140 136 146 1
141 137 138 2
142 137 152 1
143 139 140 1
144 140 141 2
145 141 144 1
146 140 142 1
147 142 143 2
148 143 144 1
149 139 147 1
150 139 148 1
151 141 149 1
152 143 150 1
153 144 151 1
154 152 153 1
155 152 159 1
156 153 154 1
157 153 156 1
158 153 160 1
159 154 155 2
160 154 168 1
161 156 157 1
162 156 158 1
163 156 161 1
164 157 162 1
165 157 163 1
166 157 164 1
167 158 165 1
168 158 166 1
169 158 167 1
170 168 169 1
171 168 177 1
172 169 170 1
173 169 172 1
174 169 178 1
175 170 171 2
176 170 185 1
177 172 173 1
178 173 174 1
179 174 175 1
180 174 176 2
181 172 179 1
182 172 180 1
183 173 181 1
184 173 182 1
185 175 183 1
186 175 184 1
187 185 186 1
188 185 196 1
189 186 187 1
190 186 189 1
191 186 197 1
192 187 188 2
193 187 209 1
194 189 190 1
195 190 191 1
196 191 192 1
197 192 193 1
198 193 194 2
199 193 195 1
200 189 198 1
201 189 199 1
202 190 200 1
203 190 201 1
204 191 202 1
205 191 203 1
206 192 204 1
207 194 205 1
208 194 206 1
209 195 207 1
210 195 208 1
211 209 210 1
212 209 216 1
213 210 211 1
214 210 213 1
215 210 217 1
216 211 212 2
217 211 225 1
218 213 214 1
219 213 215 1
220 213 218 1
221 214 219 1
222 214 220 1
223 214 221 1
224 215 222 1
225 215 223 1
226 215 224 1
227 225 226 1
228 225 233 1
229 226 227 1
230 226 229 1
231 226 234 1
232 227 228 2
233 227 244 1
234 229 230 1
235 230 231 1
236 230 232 1
237 229 235 1
238 229 236 1
239 230 237 1
240 231 238 1
241 231 239 1
242 231 240 1
243 232 241 1
244 232 242 1
245 232 243 1
246 244 245 1
247 244 255 1
248 245 246 1
249 245 248 1
250 245 256 1
251 246 247 2
252 248 249 1
253 249 250 1
254 250 251 1
255 251 252 1
256 252 253 2
257 252 254 1
258 248 257 1
259 248 258 1
260 249 259 1
261 249 260 1
262 250 261 1
263 250 262 1
264 251 263 1
265 253 264 1
266 253 265 1
267 254 266 1
268 254 267 1
@<TRIPOS>SUBSTRUCTURE
1	GLU1	1	RESIDUE	1 ****	GLU
2	ASN2	16	RESIDUE	1 ****	ASN
3	PRO3	30	RESIDUE	1 ****	PRO
4	GLU4	44	RESIDUE	1 ****	GLU
5	SER5	59	RESIDUE	1 ****	SER
6	ILE6	70	RESIDUE	1 ****	ILE
7	LEU7	89	RESIDUE	1 ****	LEU
8	ASP8	108	RESIDUE	1 ****	ASP
9	GLU9	120	RESIDUE	1 ****	GLU
10	HIS10	135	RESIDUE	1 ****	HIS
11	VAL11	152	RESIDUE	1 ****	VAL
12	GLN12	168	RESIDUE	1 ****	GLN
13	ARG13	185	RESIDUE	1 ****	ARG
14	VAL14	209	RESIDUE	1 ****	VAL
15	LEU15	225	RESIDUE	1 ****	LEU
16	ARG16	244	RESIDUE	1 ****	ARG
