@<TRIPOS>MOLECULE
16-8
261 263 16              
SMALL
USER_CHARGES
@<TRIPOS>ATOM
1	   N	2553.938	783.416	-2666.236	N.3	1	GLU1	-0.516	
2	  CA	2554.497	784.765	-2666.236	C.3	1	GLU1	0.040	
3	   C	2556.006	784.725	-2666.236	C.2	1	GLU1	0.537	
4	   O	2556.682	785.424	-2667.005	O.2	1	GLU1	-0.582	
5	  CB	2553.974	785.550	-2665.000	C.3	1	GLU1	0.056	
6	  CG	2554.449	787.035	-2664.888	C.3	1	GLU1	0.014	
7	  CD	2554.025	787.839	-2663.673	C.2	1	GLU1	0.805	
8	 OE1	2553.297	787.337	-2662.795	O.co2	1	GLU1	-0.819	
9	 OE2	2554.455	789.009	-2663.601	O.co2	1	GLU1	-0.819	
10	   H	2554.565	782.537	-2666.236	 H	1	GLU1	0.294	
11	  HA	2554.171	785.283	-2667.156	 H	1	GLU1	0.111	
12	 2HB	2554.263	785.019	-2664.069	 H	1	GLU1	-0.017	
13	 3HB	2552.867	785.540	-2664.986	 H	1	GLU1	-0.017	
14	 2HG	2554.139	787.620	-2665.769	 H	1	GLU1	-0.043	
15	 3HG	2555.549	787.102	-2664.859	 H	1	GLU1	-0.043	
16	   N	2556.610	783.940	-2665.411	N.am	2	ASN2	-0.416	
17	  CA	2558.070	783.901	-2665.411	C.3	2	ASN2	0.014	
18	   C	2558.601	783.545	-2666.780	C.2	2	ASN2	0.597	
19	   O	2559.516	784.175	-2667.308	O.2	2	ASN2	-0.568	
20	  CB	2558.561	782.878	-2664.346	C.3	2	ASN2	-0.204	
21	  CG	2558.098	783.101	-2662.903	C.2	2	ASN2	0.713	
22	 ND2	2558.692	784.016	-2662.185	N.pl3	2	ASN2	-0.919	
23	 OD1	2557.177	782.468	-2662.409	O.2	2	ASN2	-0.593	
24	   H	2556.082	783.360	-2664.775	 H	2	ASN2	0.272	
25	  HA	2558.447	784.910	-2665.166	 H	2	ASN2	0.105	
26	 2HB	2559.666	782.819	-2664.350	 H	2	ASN2	0.080	
27	 3HB	2558.232	781.859	-2664.632	 H	2	ASN2	0.080	
28	1HD2	2558.211	784.190	-2661.299	 H	2	ASN2	0.420	
29	2HD2	2559.394	784.588	-2662.654	 H	2	ASN2	0.420	
30	   N	2558.080	782.550	-2667.414	N.am	3	PRO3	-0.255	
31	  CA	2558.532	782.141	-2668.735	C.3	3	PRO3	-0.027	
32	   C	2558.134	783.164	-2669.812	C.2	3	PRO3	0.590	
33	   O	2558.958	783.547	-2670.644	O.2	3	PRO3	-0.575	
34	  CB	2557.827	780.786	-2668.905	C.3	3	PRO3	-0.007	
35	  CG	2556.544	780.939	-2668.075	C.3	3	PRO3	0.019	
36	  CD	2557.001	781.757	-2666.865	C.3	3	PRO3	0.019	
37	  HA	2559.618	782.021	-2668.749	 H	3	PRO3	0.064	
38	 2HB	2558.450	780.005	-2668.464	 H	3	PRO3	0.025	
39	 3HB	2557.629	780.538	-2669.950	 H	3	PRO3	0.025	
40	 2HG	2556.116	779.977	-2667.784	 H	3	PRO3	0.021	
41	 3HG	2555.807	781.510	-2668.643	 H	3	PRO3	0.021	
42	 2HD	2557.390	781.107	-2666.078	 H	3	PRO3	0.039	
43	 3HD	2556.205	782.393	-2666.472	 H	3	PRO3	0.039	
44	   N	2556.929	783.625	-2669.845	N.am	4	GLU4	-0.516	
45	  CA	2556.570	784.596	-2670.875	C.3	4	GLU4	0.040	
46	   C	2557.469	785.806	-2670.813	C.2	4	GLU4	0.537	
47	   O	2557.996	786.286	-2671.827	O.2	4	GLU4	-0.582	
48	  CB	2555.082	785.015	-2670.705	C.3	4	GLU4	0.056	
49	  CG	2554.534	786.018	-2671.771	C.3	4	GLU4	0.014	
50	  CD	2553.108	786.516	-2671.628	C.2	4	GLU4	0.805	
51	 OE1	2552.381	786.117	-2670.697	O.co2	4	GLU4	-0.819	
52	 OE2	2552.719	787.345	-2672.476	O.co2	4	GLU4	-0.819	
53	   H	2556.245	783.318	-2669.168	 H	4	GLU4	0.294	
54	  HA	2556.702	784.125	-2671.866	 H	4	GLU4	0.111	
55	 2HB	2554.929	785.454	-2669.698	 H	4	GLU4	-0.017	
56	 3HB	2554.434	784.117	-2670.711	 H	4	GLU4	-0.017	
57	 2HG	2554.616	785.604	-2672.789	 H	4	GLU4	-0.043	
58	 3HG	2555.123	786.951	-2671.782	 H	4	GLU4	-0.043	
59	   N	2557.696	786.359	-2669.670	N.am	5	SER5	-0.416	
60	  CA	2558.566	787.530	-2669.611	C.3	5	SER5	-0.025	
61	   C	2559.925	787.224	-2670.196	C.2	5	SER5	0.597	
62	   O	2560.473	787.977	-2671.001	O.2	5	SER5	-0.568	
63	  CB	2558.677	788.062	-2668.161	C.3	5	SER5	0.212	
64	  OG	2559.408	787.183	-2667.300	O.3	5	SER5	-0.655	
65	   H	2557.279	785.987	-2668.829	 H	5	SER5	0.272	
66	  HA	2558.117	788.321	-2670.240	 H	5	SER5	0.084	
67	 2HB	2557.677	788.256	-2667.728	 H	5	SER5	0.035	
68	 3HB	2559.183	789.048	-2668.163	 H	5	SER5	0.035	
69	  HG	2558.919	786.358	-2667.249	 H	5	SER5	0.428	
70	   N	2560.529	786.141	-2669.842	N.am	6	ILE6	-0.416	
71	  CA	2561.843	785.845	-2670.408	C.3	6	ILE6	-0.060	
72	   C	2561.785	785.808	-2671.916	C.2	6	ILE6	0.597	
73	   O	2562.620	786.395	-2672.620	O.2	6	ILE6	-0.568	
74	  CB	2562.442	784.509	-2669.808	C.3	6	ILE6	0.130	
75	 CG1	2562.460	784.447	-2668.247	C.3	6	ILE6	-0.043	
76	 CG2	2563.883	784.207	-2670.323	C.3	6	ILE6	-0.320	
77	 CD1	2562.730	783.057	-2667.632	C.3	6	ILE6	-0.066	
78	   H	2560.100	785.506	-2669.183	 H	6	ILE6	0.272	
79	  HA	2562.517	786.679	-2670.140	 H	6	ILE6	0.087	
80	  HB	2561.783	783.683	-2670.152	 H	6	ILE6	0.019	
81	2HG1	2561.479	784.767	-2667.851	 H	6	ILE6	0.024	
82	3HG1	2563.177	785.189	-2667.842	 H	6	ILE6	0.024	
83	1HG2	2563.942	784.113	-2671.421	 H	6	ILE6	0.088	
84	2HG2	2564.605	784.989	-2670.020	 H	6	ILE6	0.088	
85	3HG2	2564.272	783.244	-2669.944	 H	6	ILE6	0.088	
86	1HD1	2562.001	782.304	-2667.987	 H	6	ILE6	0.019	
87	2HD1	2563.740	782.678	-2667.867	 H	6	ILE6	0.019	
88	3HD1	2562.653	783.087	-2666.529	 H	6	ILE6	0.019	
89	   N	2560.839	785.144	-2672.489	N.am	7	LEU7	-0.416	
90	  CA	2560.784	785.108	-2673.948	C.3	7	LEU7	-0.052	
91	   C	2560.712	786.504	-2674.521	C.2	7	LEU7	0.597	
92	   O	2561.433	786.865	-2675.463	O.2	7	LEU7	-0.568	
93	  CB	2559.581	784.248	-2674.428	C.3	7	LEU7	-0.110	
94	  CG	2559.508	782.769	-2673.962	C.3	7	LEU7	0.353	
95	 CD1	2558.318	782.064	-2674.627	C.3	7	LEU7	-0.412	
96	 CD2	2560.801	781.989	-2674.253	C.3	7	LEU7	-0.412	
97	   H	2560.147	784.658	-2671.938	 H	7	LEU7	0.272	
98	  HA	2561.726	784.668	-2674.322	 H	7	LEU7	0.092	
99	 2HB	2559.558	784.264	-2675.536	 H	7	LEU7	0.046	
100	 3HB	2558.641	784.751	-2674.124	 H	7	LEU7	0.046	
101	  HG	2559.338	782.761	-2672.865	 H	7	LEU7	-0.036	
102	1HD1	2557.361	782.573	-2674.405	 H	7	LEU7	0.100	
103	2HD1	2558.417	782.023	-2675.729	 H	7	LEU7	0.100	
104	3HD1	2558.210	781.023	-2674.271	 H	7	LEU7	0.100	
105	1HD2	2561.076	782.020	-2675.323	 H	7	LEU7	0.100	
106	2HD2	2561.655	782.401	-2673.682	 H	7	LEU7	0.100	
107	3HD2	2560.719	780.927	-2673.957	 H	7	LEU7	0.100	
108	   N	2559.875	787.345	-2674.015	N.am	8	ASP8	-0.516	
109	  CA	2559.806	788.694	-2674.569	C.3	8	ASP8	0.038	
110	   C	2561.153	789.373	-2674.512	C.2	8	ASP8	0.537	
111	   O	2561.626	789.977	-2675.487	O.2	8	ASP8	-0.582	
112	  CB	2558.728	789.534	-2673.828	C.3	8	ASP8	-0.030	
113	  CG	2558.510	790.955	-2674.369	C.2	8	ASP8	0.799	
114	 OD1	2558.574	791.153	-2675.600	O.co2	8	ASP8	-0.801	
115	 OD2	2558.319	791.881	-2673.554	O.co2	8	ASP8	-0.801	
116	   H	2559.278	787.074	-2673.247	 H	8	ASP8	0.294	
117	  HA	2559.523	788.616	-2675.636	 H	8	ASP8	0.088	
118	 2HB	2558.985	789.618	-2672.756	 H	8	ASP8	-0.012	
119	 3HB	2557.749	789.029	-2673.861	 H	8	ASP8	-0.012	
120	   N	2561.833	789.324	-2673.417	N.am	9	GLU9	-0.516	
121	  CA	2563.136	789.981	-2673.362	C.3	9	GLU9	0.040	
122	   C	2564.053	789.452	-2674.438	C.2	9	GLU9	0.537	
123	   O	2564.717	790.206	-2675.164	O.2	9	GLU9	-0.582	
124	  CB	2563.770	789.773	-2671.957	C.3	9	GLU9	0.056	
125	  CG	2565.153	790.465	-2671.728	C.3	9	GLU9	0.014	
126	  CD	2565.854	790.252	-2670.400	C.2	9	GLU9	0.805	
127	 OE1	2565.333	789.562	-2669.503	O.co2	9	GLU9	-0.819	
128	 OE2	2566.974	790.789	-2670.269	O.co2	9	GLU9	-0.819	
129	   H	2561.469	788.838	-2672.610	 H	9	GLU9	0.294	
130	  HA	2562.994	791.062	-2673.538	 H	9	GLU9	0.111	
131	 2HB	2563.882	788.689	-2671.753	 H	9	GLU9	-0.017	
132	 3HB	2563.073	790.127	-2671.173	 H	9	GLU9	-0.017	
133	 2HG	2565.081	791.556	-2671.868	 H	9	GLU9	-0.043	
134	 3HG	2565.899	790.119	-2672.462	 H	9	GLU9	-0.043	
135	   N	2564.149	788.177	-2674.607	N.am	10	HIS10	-0.416	
136	  CA	2565.037	787.664	-2675.647	C.3	10	HIS10	-0.058	
137	   C	2564.670	788.228	-2676.999	C.2	10	HIS10	0.597	
138	   O	2565.522	788.692	-2677.771	O.2	10	HIS10	-0.568	
139	  CB	2564.872	786.135	-2675.642	C.3	10	HIS10	-0.007	
140	  CG	2566.157	785.425	-2675.334	C.2	10	HIS10	0.187	
141	 CD2	2566.539	785.090	-2674.041	C.2	10	HIS10	-0.221	
142	 ND1	2567.109	785.018	-2676.266	N.2	10	HIS10	-0.543	
143	 CE1	2568.015	784.460	-2675.443	C.2	10	HIS10	0.163	
144	 NE2	2567.753	784.458	-2674.108	N.pl3	10	HIS10	-0.280	
145	   H	2563.619	787.542	-2674.028	 H	10	HIS10	0.272	
146	  HA	2566.056	788.021	-2675.423	 H	10	HIS10	0.136	
147	 2HB	2564.506	785.768	-2676.621	 H	10	HIS10	0.037	
148	 3HB	2564.116	785.799	-2674.901	 H	10	HIS10	0.037	
149	 2HD	2565.954	785.306	-2673.152	 H	10	HIS10	0.186	
150	 1HE	2568.906	784.038	-2675.890	 H	10	HIS10	0.144	
151	 2HE	2568.320	784.081	-2673.335	 H	10	HIS10	0.334	
152	   N	2563.432	788.228	-2677.362	N.am	11	VAL11	-0.416	
153	  CA	2563.077	788.774	-2678.669	C.3	11	VAL11	-0.087	
154	   C	2563.542	790.204	-2678.802	C.2	11	VAL11	0.597	
155	   O	2564.143	790.608	-2679.805	O.2	11	VAL11	-0.568	
156	  CB	2561.515	788.667	-2678.888	C.3	11	VAL11	0.299	
157	 CG1	2560.947	789.371	-2680.151	C.3	11	VAL11	-0.319	
158	 CG2	2560.990	787.214	-2678.960	C.3	11	VAL11	-0.319	
159	   H	2562.719	787.856	-2676.751	 H	11	VAL11	0.272	
160	  HA	2563.596	788.190	-2679.451	 H	11	VAL11	0.097	
161	  HB	2561.028	789.149	-2678.013	 H	11	VAL11	-0.030	
162	1HG1	2561.385	788.978	-2681.088	 H	11	VAL11	0.079	
163	2HG1	2559.848	789.264	-2680.233	 H	11	VAL11	0.079	
164	3HG1	2561.126	790.463	-2680.142	 H	11	VAL11	0.079	
165	1HG2	2561.280	786.627	-2678.069	 H	11	VAL11	0.079	
166	2HG2	2559.884	787.177	-2679.002	 H	11	VAL11	0.079	
167	3HG2	2561.372	786.672	-2679.846	 H	11	VAL11	0.079	
168	   N	2563.306	791.030	-2677.840	N.am	12	GLN12	-0.416	
169	  CA	2563.755	792.413	-2677.968	C.3	12	GLN12	-0.003	
170	   C	2565.245	792.479	-2678.206	C.2	12	GLN12	0.597	
171	   O	2565.732	793.187	-2679.085	O.2	12	GLN12	-0.568	
172	  CB	2563.365	793.181	-2676.686	C.3	12	GLN12	-0.004	
173	  CG	2563.726	794.703	-2676.655	C.3	12	GLN12	-0.064	
174	  CD	2563.424	795.517	-2675.391	C.2	12	GLN12	0.695	
175	 NE2	2562.857	794.941	-2674.362	N.pl3	12	GLN12	-0.941	
176	 OE1	2563.727	796.698	-2675.314	O.2	12	GLN12	-0.609	
177	   H	2562.817	790.725	-2677.010	 H	12	GLN12	0.272	
178	  HA	2563.255	792.869	-2678.843	 H	12	GLN12	0.085	
179	 2HB	2563.841	792.681	-2675.816	 H	12	GLN12	0.017	
180	 3HB	2562.274	793.074	-2676.522	 H	12	GLN12	0.017	
181	 2HG	2563.249	795.223	-2677.506	 H	12	GLN12	0.035	
182	 3HG	2564.809	794.844	-2676.821	 H	12	GLN12	0.035	
183	1HE2	2562.751	795.536	-2673.538	 H	12	GLN12	0.425	
184	2HE2	2562.693	793.938	-2674.464	 H	12	GLN12	0.425	
185	   N	2566.029	791.772	-2677.465	N.am	13	ARG13	-0.348	
186	  CA	2567.469	791.838	-2677.696	C.3	13	ARG13	-0.264	
187	   C	2567.805	791.465	-2679.121	C.2	13	ARG13	0.734	
188	   O	2568.574	792.136	-2679.806	O.2	13	ARG13	-0.589	
189	  CB	2568.183	790.899	-2676.682	C.3	13	ARG13	-0.001	
190	  CG	2569.728	791.052	-2676.601	C.3	13	ARG13	0.039	
191	  CD	2570.355	790.065	-2675.603	C.3	13	ARG13	0.049	
192	  NE	2571.832	790.272	-2675.553	N.pl3	13	ARG13	-0.530	
193	  CZ	2572.680	789.580	-2674.798	C.cat	13	ARG13	0.808	
194	 NH1	2572.315	788.617	-2673.999	N.pl3	13	ARG13	-0.863	
195	 NH2	2573.940	789.879	-2674.855	N.pl3	13	ARG13	-0.863	
196	   H	2565.653	791.183	-2676.736	 H	13	ARG13	0.275	
197	  HA	2567.794	792.884	-2677.539	 H	13	ARG13	0.156	
198	 2HB	2567.916	789.849	-2676.920	 H	13	ARG13	0.033	
199	 3HB	2567.758	791.067	-2675.671	 H	13	ARG13	0.033	
200	 2HG	2569.976	792.097	-2676.323	 H	13	ARG13	0.029	
201	 3HG	2570.178	790.895	-2677.603	 H	13	ARG13	0.029	
202	 2HD	2570.110	789.025	-2675.911	 H	13	ARG13	0.069	
203	 3HD	2569.899	790.211	-2674.600	 H	13	ARG13	0.069	
204	  HE	2572.283	790.993	-2676.125	 H	13	ARG13	0.346	
205	1HH1	2571.310	788.431	-2674.002	 H	13	ARG13	0.448	
206	2HH1	2573.028	788.134	-2673.450	 H	13	ARG13	0.448	
207	1HH2	2574.208	790.636	-2675.487	 H	13	ARG13	0.448	
208	2HH2	2574.575	789.338	-2674.266	 H	13	ARG13	0.448	
209	   N	2567.269	790.411	-2679.635	N.am	14	VAL14	-0.416	
210	  CA	2567.593	790.050	-2681.012	C.3	14	VAL14	-0.087	
211	   C	2567.263	791.180	-2681.958	C.2	14	VAL14	0.597	
212	   O	2568.056	791.561	-2682.828	O.2	14	VAL14	-0.568	
213	  CB	2566.820	788.733	-2681.418	C.3	14	VAL14	0.299	
214	 CG1	2566.909	788.314	-2682.911	C.3	14	VAL14	-0.319	
215	 CG2	2567.252	787.481	-2680.617	C.3	14	VAL14	-0.319	
216	   H	2566.634	789.842	-2679.092	 H	14	VAL14	0.272	
217	  HA	2568.681	789.873	-2681.087	 H	14	VAL14	0.097	
218	  HB	2565.744	788.905	-2681.202	 H	14	VAL14	-0.030	
219	1HG1	2567.950	788.137	-2683.240	 H	14	VAL14	0.079	
220	2HG1	2566.335	787.391	-2683.123	 H	14	VAL14	0.079	
221	3HG1	2566.480	789.076	-2683.590	 H	14	VAL14	0.079	
222	1HG2	2567.165	787.641	-2679.526	 H	14	VAL14	0.079	
223	2HG2	2566.615	786.605	-2680.848	 H	14	VAL14	0.079	
224	3HG2	2568.299	787.191	-2680.823	 H	14	VAL14	0.079	
225	   N	2566.119	791.766	-2681.856	N.am	15	MET15	-0.416	
226	  CA	2565.798	792.859	-2682.770	C.3	15	MET15	-0.024	
227	   C	2566.829	793.958	-2682.683	C.2	15	MET15	0.597	
228	   O	2567.331	794.469	-2683.696	O.2	15	MET15	-0.568	
229	  CB	2564.377	793.404	-2682.461	C.3	15	MET15	0.034	
230	  CG	2563.215	792.406	-2682.652	C.3	15	MET15	0.002	
231	  SD	2561.641	793.273	-2682.538	S.3	15	MET15	-0.274	
232	  CE	2560.560	791.843	-2682.400	C.3	15	MET15	-0.054	
233	   H	2565.454	791.474	-2681.155	 H	15	MET15	0.272	
234	  HA	2565.824	792.471	-2683.806	 H	15	MET15	0.088	
235	 2HB	2564.175	794.283	-2683.104	 H	15	MET15	0.024	
236	 3HB	2564.342	793.797	-2681.425	 H	15	MET15	0.024	
237	 2HG	2563.258	791.621	-2681.874	 H	15	MET15	0.044	
238	 3HG	2563.277	791.891	-2683.628	 H	15	MET15	0.044	
239	 1HE	2560.703	791.155	-2683.253	 H	15	MET15	0.068	
240	 2HE	2560.769	791.291	-2681.468	 H	15	MET15	0.068	
241	 3HE	2559.502	792.159	-2682.384	 H	15	MET15	0.068	
242	   N	2567.198	794.380	-2681.521	N.am	16	PHE16	-0.416	
243	  CA	2568.194	795.444	-2681.437	C.3	16	PHE16	-0.002	
244	   C	2569.465	795.053	-2682.152	C.2	16	PHE16	0.597	
245	   O	2569.591	793.937	-2682.730	O.2	16	PHE16	-0.568	
246	  CB	2568.529	795.746	-2679.945	C.3	16	PHE16	-0.034	
247	  CG	2567.351	796.163	-2679.050	C.2	16	PHE16	0.012	
248	 CD1	2566.601	795.181	-2678.393	C.2	16	PHE16	-0.126	
249	 CD2	2566.981	797.505	-2678.933	C.2	16	PHE16	-0.126	
250	 CE1	2565.483	795.535	-2677.645	C.2	16	PHE16	-0.170	
251	 CE2	2565.869	797.860	-2678.174	C.2	16	PHE16	-0.170	
252	  CZ	2565.119	796.875	-2677.533	C.2	16	PHE16	-0.107	
253	   H	2566.803	793.980	-2680.682	 H	16	PHE16	0.272	
254	  HA	2567.792	796.352	-2681.925	 H	16	PHE16	0.098	
255	 2HB	2569.303	796.538	-2679.895	 H	16	PHE16	0.030	
256	 3HB	2569.030	794.867	-2679.490	 H	16	PHE16	0.030	
257	 1HD	2566.859	794.135	-2678.501	 H	16	PHE16	0.133	
258	 2HD	2567.546	798.272	-2679.444	 H	16	PHE16	0.133	
259	 1HE	2564.893	794.767	-2677.168	 H	16	PHE16	0.143	
260	 2HE	2565.582	798.898	-2678.093	 H	16	PHE16	0.143	
261	  HZ	2564.248	797.147	-2676.957	 H	16	PHE16	0.130	
@<TRIPOS>BOND
1 1 2 1
2 1 10 1
3 2 3 1
4 2 5 1
5 2 11 1
6 3 4 2
7 3 16 1
8 5 6 1
9 6 7 1
10 7 8 2
11 7 9 1
12 5 12 1
13 5 13 1
14 6 14 1
15 6 15 1
16 16 17 1
17 16 24 1
18 17 18 1
19 17 20 1
20 17 25 1
21 18 19 2
22 18 30 1
23 20 21 1
24 21 22 1
25 21 23 2
26 20 26 1
27 20 27 1
28 22 28 1
29 22 29 1
30 30 31 1
31 30 36 1
32 31 32 1
33 31 34 1
34 31 37 1
35 32 33 2
36 32 44 1
37 34 35 1
38 35 36 1
39 34 38 1
40 34 39 1
41 35 40 1
42 35 41 1
43 36 42 1
44 36 43 1
45 44 45 1
46 44 53 1
47 45 46 1
48 45 48 1
49 45 54 1
50 46 47 2
51 46 59 1
52 48 49 1
53 49 50 1
54 50 51 2
55 50 52 1
56 48 55 1
57 48 56 1
58 49 57 1
59 49 58 1
60 59 60 1
61 59 65 1
62 60 61 1
63 60 63 1
64 60 66 1
65 61 62 2
66 61 70 1
67 63 64 1
68 63 67 1
69 63 68 1
70 64 69 1
71 70 71 1
72 70 78 1
73 71 72 1
74 71 74 1
75 71 79 1
76 72 73 2
77 72 89 1
78 74 75 1
79 74 76 1
80 75 77 1
81 74 80 1
82 75 81 1
83 75 82 1
84 76 83 1
85 76 84 1
86 76 85 1
87 77 86 1
88 77 87 1
89 77 88 1
90 89 90 1
91 89 97 1
92 90 91 1
93 90 93 1
94 90 98 1
95 91 92 2
96 91 108 1
97 93 94 1
98 94 95 1
99 94 96 1
100 93 99 1
101 93 100 1
102 94 101 1
103 95 102 1
104 95 103 1
105 95 104 1
106 96 105 1
107 96 106 1
108 96 107 1
109 108 109 1
110 108 116 1
111 109 110 1
112 109 112 1
113 109 117 1
114 110 111 2
115 110 120 1
116 112 113 1
117 113 114 2
118 113 115 1
119 112 118 1
120 112 119 1
121 120 121 1
122 120 129 1
123 121 122 1
124 121 124 1
125 121 130 1
126 122 123 2
127 122 135 1
128 124 125 1
129 125 126 1
130 126 127 2
131 126 128 1
132 124 131 1
133 124 132 1
134 125 133 1
135 125 134 1
136 135 136 1
137 135 145 1
138 136 137 1
139 136 139 1
140 136 146 1
141 137 138 2
142 137 152 1
143 139 140 1
144 140 141 2
145 141 144 1
146 140 142 1
147 142 143 2
148 143 144 1
149 139 147 1
150 139 148 1
151 141 149 1
152 143 150 1
153 144 151 1
154 152 153 1
155 152 159 1
156 153 154 1
157 153 156 1
158 153 160 1
159 154 155 2
160 154 168 1
161 156 157 1
162 156 158 1
163 156 161 1
164 157 162 1
165 157 163 1
166 157 164 1
167 158 165 1
168 158 166 1
169 158 167 1
170 168 169 1
171 168 177 1
172 169 170 1
173 169 172 1
174 169 178 1
175 170 171 2
176 170 185 1
177 172 173 1
178 173 174 1
179 174 175 1
180 174 176 2
181 172 179 1
182 172 180 1
183 173 181 1
184 173 182 1
185 175 183 1
186 175 184 1
187 185 186 1
188 185 196 1
189 186 187 1
190 186 189 1
191 186 197 1
192 187 188 2
193 187 209 1
194 189 190 1
195 190 191 1
196 191 192 1
197 192 193 1
198 193 194 2
199 193 195 1
200 189 198 1
201 189 199 1
202 190 200 1
203 190 201 1
204 191 202 1
205 191 203 1
206 192 204 1
207 194 205 1
208 194 206 1
209 195 207 1
210 195 208 1
211 209 210 1
212 209 216 1
213 210 211 1
214 210 213 1
215 210 217 1
216 211 212 2
217 211 225 1
218 213 214 1
219 213 215 1
220 213 218 1
221 214 219 1
222 214 220 1
223 214 221 1
224 215 222 1
225 215 223 1
226 215 224 1
227 225 226 1
228 225 233 1
229 226 227 1
230 226 229 1
231 226 234 1
232 227 228 2
233 227 242 1
234 229 230 1
235 230 231 1
236 231 232 1
237 229 235 1
238 229 236 1
239 230 237 1
240 230 238 1
241 232 239 1
242 232 240 1
243 232 241 1
244 242 243 1
245 242 253 1
246 243 244 1
247 243 246 1
248 243 254 1
249 244 245 2
250 246 247 1
251 247 248 2
252 247 249 1
253 249 251 2
254 248 250 1
255 251 252 1
256 250 252 2
257 246 255 1
258 246 256 1
259 248 257 1
260 249 258 1
261 250 259 1
262 251 260 1
263 252 261 1
@<TRIPOS>SUBSTRUCTURE
1	GLU1	1	RESIDUE	1 ****	GLU
2	ASN2	16	RESIDUE	1 ****	ASN
3	PRO3	30	RESIDUE	1 ****	PRO
4	GLU4	44	RESIDUE	1 ****	GLU
5	SER5	59	RESIDUE	1 ****	SER
6	ILE6	70	RESIDUE	1 ****	ILE
7	LEU7	89	RESIDUE	1 ****	LEU
8	ASP8	108	RESIDUE	1 ****	ASP
9	GLU9	120	RESIDUE	1 ****	GLU
10	HIS10	135	RESIDUE	1 ****	HIS
11	VAL11	152	RESIDUE	1 ****	VAL
12	GLN12	168	RESIDUE	1 ****	GLN
13	ARG13	185	RESIDUE	1 ****	ARG
14	VAL14	209	RESIDUE	1 ****	VAL
15	MET15	225	RESIDUE	1 ****	MET
16	PHE16	242	RESIDUE	1 ****	PHE
