REMARK WARNING: 32 MAX_TORS EXCEEDED!!!
REMARK  69 active torsions:
REMARK  status: ('A' for Active; 'I' for Inactive)
REMARK    1  A    between atoms: N_1  and  CA_2 
REMARK    2  A    between atoms: CA_2  and  C_3 
REMARK    3  A    between atoms: CA_2  and  CB_5 
REMARK       I    between atoms: C_3  and  N_11 
REMARK    4  A    between atoms: CB_5  and  CG_6 
REMARK    5  A    between atoms: CG_6  and  CD_7 
REMARK    6  A    between atoms: N_11  and  CA_12 
REMARK    7  A    between atoms: CA_12  and  C_13 
REMARK    8  A    between atoms: CA_12  and  CB_15 
REMARK       I    between atoms: C_13  and  N_22 
REMARK    9  A    between atoms: CB_15  and  CG_16 
REMARK       I    between atoms: CG_16  and  ND2_17 
REMARK   10  A    between atoms: CA_23  and  C_24 
REMARK       I    between atoms: C_24  and  N_29 
REMARK   11  A    between atoms: N_29  and  CA_30 
REMARK   12  A    between atoms: CA_30  and  C_31 
REMARK   13  A    between atoms: CA_30  and  CB_33 
REMARK       I    between atoms: C_31  and  N_39 
REMARK   14  A    between atoms: CB_33  and  CG_34 
REMARK   15  A    between atoms: CG_34  and  CD_35 
REMARK   16  A    between atoms: N_39  and  CA_40 
REMARK   17  A    between atoms: CA_40  and  C_41 
REMARK   18  A    between atoms: CA_40  and  CB_43 
REMARK       I    between atoms: C_41  and  N_47 
REMARK   19  A    between atoms: CB_43  and  OG_44 
REMARK   20  A    between atoms: N_47  and  CA_48 
REMARK   21  A    between atoms: CA_48  and  C_49 
REMARK   22  A    between atoms: CA_48  and  CB_51 
REMARK       I    between atoms: C_49  and  N_56 
REMARK   23  A    between atoms: CB_51  and  CG1_52 
REMARK   24  A    between atoms: N_56  and  CA_57 
REMARK   25  A    between atoms: CA_57  and  C_58 
REMARK   26  A    between atoms: CA_57  and  CB_60 
REMARK       I    between atoms: C_58  and  N_65 
REMARK   27  A    between atoms: CB_60  and  CG_61 
REMARK   28  A    between atoms: N_65  and  CA_66 
REMARK   29  A    between atoms: CA_66  and  C_67 
REMARK   30  A    between atoms: CA_66  and  CB_69 
REMARK       I    between atoms: C_67  and  N_74 
REMARK   31  A    between atoms: CB_69  and  CG_70 
REMARK   32  A    between atoms: N_74  and  CA_75 
REMARK   33  A    between atoms: CA_75  and  C_76 
REMARK   34  A    between atoms: CA_75  and  CB_78 
REMARK       I    between atoms: C_76  and  N_84 
REMARK   35  A    between atoms: CB_78  and  CG_79 
REMARK   36  A    between atoms: CG_79  and  CD_80 
REMARK   37  A    between atoms: N_84  and  CA_85 
REMARK   38  A    between atoms: CA_85  and  C_86 
REMARK   39  A    between atoms: CA_85  and  CB_88 
REMARK       I    between atoms: C_86  and  N_96 
REMARK   40  A    between atoms: CB_88  and  CG_89 
REMARK   41  A    between atoms: N_96  and  CA_97 
REMARK   42  A    between atoms: CA_97  and  C_98 
REMARK   43  A    between atoms: CA_97  and  CB_100 
REMARK       I    between atoms: C_98  and  N_105 
REMARK   44  A    between atoms: CB_100  and  CG_101 
REMARK   45  A    between atoms: N_105  and  CA_106 
REMARK   46  A    between atoms: CA_106  and  C_107 
REMARK   47  A    between atoms: CA_106  and  CB_109 
REMARK       I    between atoms: C_107  and  N_117 
REMARK   48  A    between atoms: CB_109  and  CG_110 
REMARK   49  A    between atoms: CG_110  and  CD_111 
REMARK       I    between atoms: CD_111  and  NE2_112 
REMARK   50  A    between atoms: N_117  and  CA_118 
REMARK   51  A    between atoms: CA_118  and  C_119 
REMARK   52  A    between atoms: CA_118  and  CB_121 
REMARK       I    between atoms: C_119  and  N_134 
REMARK   53  A    between atoms: CB_121  and  CG_122 
REMARK   54  A    between atoms: CG_122  and  CD_123 
REMARK   55  A    between atoms: CD_123  and  NE_124 
REMARK       I    between atoms: NE_124  and  CZ_125 
REMARK       I    between atoms: CZ_125  and  NH1_126 
REMARK       I    between atoms: CZ_125  and  NH2_127 
REMARK   56  A    between atoms: N_134  and  CA_135 
REMARK   57  A    between atoms: CA_135  and  C_136 
REMARK   58  A    between atoms: CA_135  and  CB_138 
REMARK       I    between atoms: C_136  and  N_142 
REMARK   59  A    between atoms: N_142  and  CA_143 
REMARK   60  A    between atoms: CA_143  and  C_144 
REMARK   61  A    between atoms: CA_143  and  CB_146 
REMARK       I    between atoms: C_144  and  N_151 
REMARK   62  A    between atoms: CB_146  and  CG_147 
REMARK   63  A    between atoms: CG_147  and  SD_148 
REMARK   64  A    between atoms: N_151  and  CA_152 
REMARK   65  A    between atoms: CA_152  and  C_153 
REMARK   66  A    between atoms: CA_152  and  CB_155 
REMARK   67  A    between atoms: CB_155  and  CG_156 
REMARK   68  A    between atoms: CG_156  and  CD_157 
REMARK   69  A    between atoms: CD_157  and  NE_158 
REMARK       I    between atoms: NE_158  and  CZ_159 
REMARK       I    between atoms: CZ_159  and  NH1_160 
ROOT
ATOM      1  C   GLU d   9    1740.640 523.936-1776.922  0.00  0.00     0.241 C 
ATOM      2  O   GLU d   9    1741.304 524.691-1777.647  0.00  0.00    -0.271 OA
ATOM      3  N   HIS d  10    1740.737 522.661-1777.092  0.00  0.00    -0.346 N 
ATOM      4  H   HIS d  10    1740.206 522.025-1776.514  0.00  0.00     0.163 HD
ENDROOT
BRANCH   3   5
ATOM      5  CA  HIS d  10    1741.625 522.150-1778.132  0.00  0.00     0.182 C 
BRANCH   5   6
ATOM      6  C   HIS d  10    1741.258 522.715-1779.484  0.00  0.00     0.241 C 
ATOM      7  O   HIS d  10    1742.111 523.180-1780.255  0.00  0.00    -0.271 OA
ATOM      8  N   LEU d  11    1740.021 522.713-1779.847  0.00  0.00    -0.346 N 
ATOM      9  H   LEU d  11    1739.308 522.340-1779.236  0.00  0.00     0.163 HD
BRANCH   8  10
ATOM     10  CA  LEU d  11    1739.666 523.260-1781.153  0.00  0.00     0.177 C 
BRANCH  10  11
ATOM     11  C   LEU d  11    1740.130 524.691-1781.285  0.00  0.00     0.241 C 
ATOM     12  O   LEU d  11    1740.733 525.097-1782.289  0.00  0.00    -0.271 OA
ATOM     13  N   GLN d  12    1739.892 525.516-1780.322  0.00  0.00    -0.346 N 
ATOM     14  H   GLN d  12    1739.403 525.209-1779.493  0.00  0.00     0.163 HD
BRANCH  13  15
ATOM     15  CA  GLN d  12    1740.340 526.899-1780.448  0.00  0.00     0.177 C 
BRANCH  15  16
ATOM     16  C   GLN d  12    1741.831 526.967-1780.685  0.00  0.00     0.241 C 
ATOM     17  O   GLN d  12    1742.318 527.676-1781.563  0.00  0.00    -0.271 OA
ATOM     18  N   ARG d  13    1742.615 526.260-1779.944  0.00  0.00    -0.346 N 
ATOM     19  H   ARG d  13    1742.239 525.669-1779.216  0.00  0.00     0.163 HD
BRANCH  18  20
ATOM     20  CA  ARG d  13    1744.055 526.326-1780.174  0.00  0.00     0.176 C 
BRANCH  20  21
ATOM     21  C   ARG d  13    1744.392 525.955-1781.599  0.00  0.00     0.241 C 
ATOM     22  O   ARG d  13    1745.161 526.628-1782.283  0.00  0.00    -0.271 OA
ATOM     23  N   VAL d  14    1743.857 524.901-1782.115  0.00  0.00    -0.346 N 
ATOM     24  H   VAL d  14    1743.222 524.332-1781.573  0.00  0.00     0.163 HD
BRANCH  23  25
ATOM     25  CA  VAL d  14    1744.182 524.543-1783.492  0.00  0.00     0.180 C 
BRANCH  25  26
ATOM     26  C   VAL d  14    1743.852 525.673-1784.437  0.00  0.00     0.241 C 
ATOM     27  O   VAL d  14    1744.646 526.055-1785.306  0.00  0.00    -0.271 OA
ATOM     28  N   MET d  15    1742.707 526.259-1784.336  0.00  0.00    -0.346 N 
ATOM     29  H   MET d  15    1742.042 525.965-1783.635  0.00  0.00     0.163 HD
BRANCH  28  30
ATOM     30  CA  MET d  15    1742.387 527.352-1785.249  0.00  0.00     0.177 C 
BRANCH  30  31
ATOM     31  C   MET d  15    1743.417 528.452-1785.160  0.00  0.00     0.241 C 
ATOM     32  O   MET d  15    1743.920 528.963-1786.172  0.00  0.00    -0.271 OA
ATOM     33  N   ARG d  16    1743.785 528.872-1783.997  0.00  0.00    -0.347 N 
ATOM     34  H   ARG d  16    1743.390 528.472-1783.158  0.00  0.00     0.163 HD
BRANCH  33  35
ATOM     35  CA  ARG d  16    1744.781 529.936-1783.912  0.00  0.00     0.162 C 
BRANCH  35  36
ATOM     36  C   ARG d  16    1746.052 529.544-1784.628  0.00  0.00     0.219 C 
ATOM     37  O   ARG d  16    1746.167 528.468-1785.210  0.00  0.00    -0.287 OA
ENDBRANCH  35  36
BRANCH  35  38
ATOM     38  CB  ARG d  16    1745.049 530.253-1782.414  0.00  0.00     0.035 C 
BRANCH  38  39
ATOM     39  CG  ARG d  16    1745.874 531.542-1782.140  0.00  0.00     0.023 C 
BRANCH  39  40
ATOM     40  CD  ARG d  16    1746.123 531.761-1780.638  0.00  0.00     0.138 C 
BRANCH  40  41
ATOM     41  NE  ARG d  16    1746.899 533.020-1780.436  0.00  0.00    -0.227 N 
ATOM     42  CZ  ARG d  16    1747.289 533.501-1779.260  0.00  0.00     0.665 C 
ATOM     43  NH1 ARG d  16    1747.041 532.917-1778.122  0.00  0.00    -0.235 N 
ATOM     44  NH2 ARG d  16    1747.953 534.614-1779.240  0.00  0.00    -0.235 N 
ATOM     45 11HH ARG d  16    1746.516 532.043-1778.207  0.00  0.00     0.174 HD
ATOM     46 12HH ARG d  16    1747.375 533.352-1777.260  0.00  0.00     0.174 HD
ATOM     47 21HH ARG d  16    1748.139 535.058-1780.142  0.00  0.00     0.174 HD
ATOM     48 22HH ARG d  16    1748.243 534.969-1778.328  0.00  0.00     0.174 HD
ATOM     49  HE  ARG d  16    1747.178 533.601-1781.233  0.00  0.00     0.177 HD
ENDBRANCH  40  41
ENDBRANCH  39  40
ENDBRANCH  38  39
ENDBRANCH  35  38
ENDBRANCH  33  35
ENDBRANCH  30  31
BRANCH  30  50
ATOM     50  CB  MET d  15    1740.965 527.897-1784.941  0.00  0.00     0.045 C 
BRANCH  50  51
ATOM     51  CG  MET d  15    1739.803 526.899-1785.134  0.00  0.00     0.076 C 
BRANCH  51  52
ATOM     52  SD  MET d  15    1738.229 527.765-1785.020  0.00  0.00    -0.173 SA
ATOM     53  CE  MET d  15    1737.148 526.335-1784.885  0.00  0.00     0.089 C 
ENDBRANCH  51  52
ENDBRANCH  50  51
ENDBRANCH  30  50
ENDBRANCH  28  30
ENDBRANCH  25  26
BRANCH  25  54
ATOM     54  CB  VAL d  14    1743.410 523.226-1783.900  0.00  0.00     0.009 C 
ATOM     55  CG1 VAL d  14    1743.500 522.808-1785.394  0.00  0.00     0.012 C 
ATOM     56  CG2 VAL d  14    1743.842 521.973-1783.100  0.00  0.00     0.012 C 
ENDBRANCH  25  54
ENDBRANCH  23  25
ENDBRANCH  20  21
BRANCH  20  57
ATOM     57  CB  ARG d  13    1744.768 525.386-1779.161  0.00  0.00     0.036 C 
BRANCH  57  58
ATOM     58  CG  ARG d  13    1746.313 525.540-1779.079  0.00  0.00     0.023 C 
BRANCH  58  59
ATOM     59  CD  ARG d  13    1746.940 524.552-1778.081  0.00  0.00     0.138 C 
BRANCH  59  60
ATOM     60  NE  ARG d  13    1748.417 524.759-1778.030  0.00  0.00    -0.227 N 
ATOM     61  CZ  ARG d  13    1749.265 524.067-1777.275  0.00  0.00     0.665 C 
ATOM     62  NH1 ARG d  13    1748.900 523.102-1776.478  0.00  0.00    -0.235 N 
ATOM     63  NH2 ARG d  13    1750.524 524.367-1777.331  0.00  0.00    -0.235 N 
ATOM     64 11HH ARG d  13    1747.894 522.916-1776.482  0.00  0.00     0.174 HD
ATOM     65 12HH ARG d  13    1749.613 522.619-1775.930  0.00  0.00     0.174 HD
ATOM     66 21HH ARG d  13    1750.792 525.125-1777.961  0.00  0.00     0.174 HD
ATOM     67 22HH ARG d  13    1751.159 523.825-1776.742  0.00  0.00     0.174 HD
ATOM     68  HE  ARG d  13    1748.868 525.482-1778.600  0.00  0.00     0.177 HD
ENDBRANCH  59  60
ENDBRANCH  58  59
ENDBRANCH  57  58
ENDBRANCH  20  57
ENDBRANCH  18  20
ENDBRANCH  15  16
BRANCH  15  69
ATOM     69  CB  GLN d  12    1739.949 527.666-1779.165  0.00  0.00     0.044 C 
BRANCH  69  70
ATOM     70  CG  GLN d  12    1740.309 529.187-1779.133  0.00  0.00     0.105 C 
BRANCH  70  71
ATOM     71  CD  GLN d  12    1740.005 530.000-1777.868  0.00  0.00     0.215 C 
ATOM     72  NE2 GLN d  12    1739.438 529.423-1776.839  0.00  0.00    -0.370 N 
ATOM     73 21HE GLN d  12    1739.330 530.017-1776.015  0.00  0.00     0.159 HD
ATOM     74 22HE GLN d  12    1739.275 528.419-1776.943  0.00  0.00     0.159 HD
ATOM     75  OE1 GLN d  12    1740.307 531.181-1777.789  0.00  0.00    -0.274 OA
ENDBRANCH  70  71
ENDBRANCH  69  70
ENDBRANCH  15  69
ENDBRANCH  13  15
ENDBRANCH  10  11
BRANCH  10  76
ATOM     76  CB  LEU d  11    1738.134 523.149-1781.394  0.00  0.00     0.038 C 
BRANCH  76  77
ATOM     77  CG  LEU d  11    1737.484 521.740-1781.330  0.00  0.00    -0.020 C 
ATOM     78  CD1 LEU d  11    1735.997 521.826-1781.703  0.00  0.00     0.009 C 
ATOM     79  CD2 LEU d  11    1738.188 520.720-1782.241  0.00  0.00     0.009 C 
ENDBRANCH  76  77
ENDBRANCH  10  76
ENDBRANCH   8  10
ENDBRANCH   5   6
BRANCH   5  80
ATOM     80  CB  HIS d  10    1741.462 520.621-1778.128  0.00  0.00     0.095 C 
BRANCH  80  81
ATOM     81  CG  HIS d  10    1742.748 519.911-1777.820  0.00  0.00     0.053 A 
ATOM     82  CD2 HIS d  10    1743.129 519.576-1776.527  0.00  0.00     0.116 A 
ATOM     83  NE2 HIS d  10    1744.344 518.945-1776.594  0.00  0.00    -0.359 N 
ATOM     84  CE1 HIS d  10    1744.607 518.948-1777.929  0.00  0.00     0.207 A 
ATOM     85  2HE HIS d  10    1744.911 518.567-1775.821  0.00  0.00     0.166 HD
ATOM     86  ND1 HIS d  10    1743.700 519.506-1778.753  0.00  0.00    -0.247 NA
ENDBRANCH  80  81
ENDBRANCH   5  80
ENDBRANCH   3   5
BRANCH   1  87
ATOM     87  CA  GLU d   9    1739.721 524.463-1775.846  0.00  0.00     0.177 C 
BRANCH  87  88
ATOM     88  N   GLU d   9    1738.419 523.805-1775.902  0.00  0.00    -0.346 N 
ATOM     89  C   ASP d   8    1737.739 523.855-1776.997  0.00  0.00     0.241 C 
ATOM     90  O   ASP d   8    1738.212 524.460-1777.972  0.00  0.00    -0.271 OA
ATOM     91  H   GLU d   9    1738.056 523.318-1775.095  0.00  0.00     0.163 HD
BRANCH  89  92
ATOM     92  CA  ASP d   8    1736.393 523.174-1777.055  0.00  0.00     0.186 C 
BRANCH  92  93
ATOM     93  N   ASP d   8    1736.463 521.825-1776.501  0.00  0.00    -0.346 N 
ATOM     94  C   LEU d   7    1737.301 520.985-1777.008  0.00  0.00     0.241 C 
ATOM     95  O   LEU d   7    1738.021 521.348-1777.950  0.00  0.00    -0.271 OA
ATOM     96  H   ASP d   8    1735.865 521.554-1775.734  0.00  0.00     0.163 HD
BRANCH  94  97
ATOM     97  CA  LEU d   7    1737.373 519.589-1776.435  0.00  0.00     0.177 C 
BRANCH  97  98
ATOM     98  N   LEU d   7    1737.428 519.625-1774.977  0.00  0.00    -0.346 N 
ATOM     99  C   ILE d   6    1738.374 520.289-1774.403  0.00  0.00     0.241 C 
ATOM    100  O   ILE d   6    1739.209 520.877-1775.107  0.00  0.00    -0.271 OA
ATOM    101  H   LEU d   7    1736.736 519.138-1774.425  0.00  0.00     0.163 HD
BRANCH  99 102
ATOM    102  CA  ILE d   6    1738.431 520.327-1772.895  0.00  0.00     0.180 C 
BRANCH 102 103
ATOM    103  N   ILE d   6    1737.118 520.621-1772.329  0.00  0.00    -0.346 N 
ATOM    104  C   SER d   5    1736.513 521.704-1772.683  0.00  0.00     0.243 C 
ATOM    105  O   SER d   5    1737.061 522.458-1773.488  0.00  0.00    -0.271 OA
ATOM    106  H   ILE d   6    1736.690 519.987-1771.670  0.00  0.00     0.163 HD
BRANCH 104 107
ATOM    107  CA  SER d   5    1735.154 522.010-1772.098  0.00  0.00     0.200 C 
BRANCH 107 108
ATOM    108  N   SER d   5    1734.285 520.839-1772.156  0.00  0.00    -0.344 N 
ATOM    109  C   GLU d   4    1734.057 520.286-1773.299  0.00  0.00     0.241 C 
ATOM    110  O   GLU d   4    1734.584 520.765-1774.314  0.00  0.00    -0.271 OA
ATOM    111  H   SER d   5    1733.868 520.467-1771.315  0.00  0.00     0.163 HD
BRANCH 109 112
ATOM    112  CA  GLU d   4    1733.159 519.075-1773.360  0.00  0.00     0.177 C 
BRANCH 112 113
ATOM    113  N   GLU d   4    1733.518 518.104-1772.331  0.00  0.00    -0.346 N 
ATOM    114  C   PRO d   3    1734.723 517.644-1772.298  0.00  0.00     0.241 C 
ATOM    115  O   PRO d   3    1735.546 518.027-1773.130  0.00  0.00    -0.271 OA
ATOM    116  H   GLU d   4    1732.834 517.797-1771.654  0.00  0.00     0.163 HD
BRANCH 114 117
ATOM    117  CA  PRO d   3    1735.121 516.620-1771.222  0.00  0.00     0.179 C 
ATOM    118  N   PRO d   3    1734.669 517.030-1769.900  0.00  0.00    -0.337 N 
ATOM    119  C   ASN d   2    1735.191 518.025-1769.266  0.00  0.00     0.243 C 
ATOM    120  CD  PRO d   3    1733.591 516.237-1769.351  0.00  0.00     0.127 C 
ATOM    121  O   ASN d   2    1736.106 518.655-1769.795  0.00  0.00    -0.271 OA
ATOM    122  CG  PRO d   3    1733.134 515.418-1770.561  0.00  0.00     0.022 C 
ATOM    123  CB  PRO d   3    1734.417 515.266-1771.391  0.00  0.00     0.037 C 
BRANCH 119 124
ATOM    124  CA  ASN d   2    1734.660 518.380-1767.897  0.00  0.00     0.185 C 
BRANCH 124 125
ATOM    125  N   ASN d   2    1733.200 518.419-1767.897  0.00  0.00    -0.346 N 
ATOM    126  C   GLU d   1    1732.596 519.205-1768.723  0.00  0.00     0.242 C 
ATOM    127  O   GLU d   1    1733.272 519.904-1769.491  0.00  0.00    -0.271 OA
ATOM    128  H   ASN d   2    1732.672 517.839-1767.261  0.00  0.00     0.163 HD
BRANCH 126 129
ATOM    129  CA  GLU d   1    1731.087 519.245-1768.723  0.00  0.00     0.191 C 
BRANCH 129 130
ATOM    130  N   GLU d   1    1730.528 517.896-1768.723  0.00  0.00    -0.326 NA
ATOM    131  H   GLU d   1    1731.155 517.017-1768.723  0.00  0.00     0.180 HD
ENDBRANCH 129 130
BRANCH 129 132
ATOM    132  CB  GLU d   1    1730.564 520.030-1767.485  0.00  0.00     0.047 C 
BRANCH 132 133
ATOM    133  CG  GLU d   1    1731.039 521.515-1767.375  0.00  0.00     0.116 C 
BRANCH 133 134
ATOM    134  CD  GLU d   1    1730.615 522.319-1766.159  0.00  0.00     0.172 C 
ATOM    135  OE1 GLU d   1    1729.887 521.817-1765.281  0.00  0.00    -0.648 OA
ATOM    136  OE2 GLU d   1    1731.045 523.489-1766.088  0.00  0.00    -0.648 OA
ENDBRANCH 133 134
ENDBRANCH 132 133
ENDBRANCH 129 132
ENDBRANCH 126 129
ENDBRANCH 124 125
BRANCH 124 137
ATOM    137  CB  ASN d   2    1735.152 517.357-1766.833  0.00  0.00     0.137 C 
BRANCH 137 138
ATOM    138  CG  ASN d   2    1734.688 517.581-1765.390  0.00  0.00     0.217 C 
ATOM    139  ND2 ASN d   2    1735.283 518.496-1764.672  0.00  0.00    -0.370 N 
ATOM    140 21HD ASN d   2    1734.802 518.669-1763.785  0.00  0.00     0.159 HD
ATOM    141 22HD ASN d   2    1735.984 519.068-1765.141  0.00  0.00     0.159 HD
ATOM    142  OD1 ASN d   2    1733.768 516.947-1764.896  0.00  0.00    -0.274 OA
ENDBRANCH 137 138
ENDBRANCH 124 137
ENDBRANCH 119 124
ENDBRANCH 114 117
ENDBRANCH 112 113
BRANCH 112 143
ATOM    143  CB  GLU d   4    1731.670 519.493-1773.190  0.00  0.00     0.045 C 
BRANCH 143 144
ATOM    144  CG  GLU d   4    1731.122 520.497-1774.256  0.00  0.00     0.116 C 
BRANCH 144 145
ATOM    145  CD  GLU d   4    1729.696 520.994-1774.112  0.00  0.00     0.172 C 
ATOM    146  OE1 GLU d   4    1728.969 520.596-1773.181  0.00  0.00    -0.648 OA
ATOM    147  OE2 GLU d   4    1729.306 521.823-1774.960  0.00  0.00    -0.648 OA
ENDBRANCH 144 145
ENDBRANCH 143 144
ENDBRANCH 112 143
ENDBRANCH 109 112
ENDBRANCH 107 108
BRANCH 107 148
ATOM    148  CB  SER d   5    1735.266 522.542-1770.647  0.00  0.00     0.199 C 
BRANCH 148 149
ATOM    149  OG  SER d   5    1735.998 521.663-1769.786  0.00  0.00    -0.398 OA
ATOM    150  HG  SER d   5    1735.509 520.838-1769.735  0.00  0.00     0.209 HD
ENDBRANCH 148 149
ENDBRANCH 107 148
ENDBRANCH 104 107
ENDBRANCH 102 103
BRANCH 102 151
ATOM    151  CB  ILE d   6    1739.031 518.990-1772.295  0.00  0.00     0.013 C 
ATOM    152  CG2 ILE d   6    1740.473 518.689-1772.811  0.00  0.00     0.012 C 
BRANCH 151 153
ATOM    153  CG1 ILE d   6    1739.051 518.928-1770.734  0.00  0.00     0.002 C 
ATOM    154  CD1 ILE d   6    1739.321 517.539-1770.119  0.00  0.00     0.005 C 
ENDBRANCH 151 153
ENDBRANCH 102 151
ENDBRANCH  99 102
ENDBRANCH  97  98
BRANCH  97 155
ATOM    155  CB  LEU d   7    1736.170 518.729-1776.916  0.00  0.00     0.038 C 
BRANCH 155 156
ATOM    156  CG  LEU d   7    1736.098 517.250-1776.449  0.00  0.00    -0.020 C 
ATOM    157  CD1 LEU d   7    1734.908 516.544-1777.115  0.00  0.00     0.009 C 
ATOM    158  CD2 LEU d   7    1737.392 516.471-1776.741  0.00  0.00     0.009 C 
ENDBRANCH 155 156
ENDBRANCH  97 155
ENDBRANCH  94  97
ENDBRANCH  92  93
BRANCH  92 159
ATOM    159  CB  ASP d   8    1735.314 524.013-1776.313  0.00  0.00     0.147 C 
BRANCH 159 160
ATOM    160  CG  ASP d   8    1735.095 525.434-1776.853  0.00  0.00     0.175 C 
ATOM    161  OD1 ASP d   8    1735.159 525.633-1778.084  0.00  0.00    -0.648 OA
ATOM    162  OD2 ASP d   8    1734.903 526.360-1776.037  0.00  0.00    -0.648 OA
ENDBRANCH 159 160
ENDBRANCH  92 159
ENDBRANCH  89  92
ENDBRANCH  87  88
BRANCH  87 163
ATOM    163  CB  GLU d   9    1740.355 524.255-1774.441  0.00  0.00     0.045 C 
BRANCH 163 164
ATOM    164  CG  GLU d   9    1741.737 524.948-1774.211  0.00  0.00     0.116 C 
BRANCH 164 165
ATOM    165  CD  GLU d   9    1742.439 524.734-1772.883  0.00  0.00     0.172 C 
ATOM    166  OE1 GLU d   9    1741.917 524.043-1771.987  0.00  0.00    -0.648 OA
ATOM    167  OE2 GLU d   9    1743.558 525.272-1772.751  0.00  0.00    -0.648 OA
ENDBRANCH 164 165
ENDBRANCH 163 164
ENDBRANCH  87 163
ENDBRANCH   1  87
TORSDOF 69
