@<TRIPOS>MOLECULE
3-2
265 266 16              
SMALL
USER_CHARGES
@<TRIPOS>ATOM
1	   N	348.847	78.618	-327.058	N.3	1	GLU1	-0.516	
2	  CA	349.406	79.967	-327.058	C.3	1	GLU1	0.040	
3	   C	350.915	79.927	-327.058	C.2	1	GLU1	0.537	
4	   O	351.591	80.626	-327.826	O.2	1	GLU1	-0.582	
5	  CB	348.883	80.752	-325.821	C.3	1	GLU1	0.056	
6	  CG	349.358	82.237	-325.710	C.3	1	GLU1	0.014	
7	  CD	348.934	83.041	-324.495	C.2	1	GLU1	0.805	
8	 OE1	348.206	82.539	-323.617	O.co2	1	GLU1	-0.819	
9	 OE2	349.364	84.211	-324.423	O.co2	1	GLU1	-0.819	
10	   H	349.474	77.739	-327.058	 H	1	GLU1	0.294	
11	  HA	349.080	80.485	-327.978	 H	1	GLU1	0.111	
12	 2HB	349.172	80.221	-324.891	 H	1	GLU1	-0.017	
13	 3HB	347.776	80.742	-325.808	 H	1	GLU1	-0.017	
14	 2HG	349.048	82.822	-326.591	 H	1	GLU1	-0.043	
15	 3HG	350.458	82.304	-325.681	 H	1	GLU1	-0.043	
16	   N	351.520	79.141	-326.232	N.am	2	ASN2	-0.416	
17	  CA	352.979	79.102	-326.233	C.3	2	ASN2	0.014	
18	   C	353.510	78.747	-327.601	C.2	2	ASN2	0.597	
19	   O	354.425	79.378	-328.130	O.2	2	ASN2	-0.568	
20	  CB	353.472	78.080	-325.168	C.3	2	ASN2	-0.204	
21	  CG	353.009	78.303	-323.725	C.2	2	ASN2	0.713	
22	 ND2	353.603	79.218	-323.007	N.pl3	2	ASN2	-0.919	
23	 OD1	352.088	77.669	-323.231	O.2	2	ASN2	-0.593	
24	   H	350.992	78.561	-325.596	 H	2	ASN2	0.272	
25	  HA	353.357	80.112	-325.987	 H	2	ASN2	0.105	
26	 2HB	354.576	78.021	-325.172	 H	2	ASN2	0.080	
27	 3HB	353.143	77.061	-325.454	 H	2	ASN2	0.080	
28	1HD2	353.122	79.391	-322.120	 H	2	ASN2	0.420	
29	2HD2	354.304	79.790	-323.476	 H	2	ASN2	0.420	
30	   N	352.989	77.752	-328.235	N.am	3	PRO3	-0.255	
31	  CA	353.441	77.343	-329.557	C.3	3	PRO3	-0.027	
32	   C	353.042	78.366	-330.634	C.2	3	PRO3	0.590	
33	   O	353.866	78.750	-331.465	O.2	3	PRO3	-0.575	
34	  CB	352.737	75.988	-329.726	C.3	3	PRO3	-0.007	
35	  CG	351.454	76.140	-328.896	C.3	3	PRO3	0.019	
36	  CD	351.911	76.959	-327.686	C.3	3	PRO3	0.019	
37	  HA	354.527	77.223	-329.571	 H	3	PRO3	0.064	
38	 2HB	353.360	75.207	-329.286	 H	3	PRO3	0.025	
39	 3HB	352.539	75.739	-330.771	 H	3	PRO3	0.025	
40	 2HG	351.026	75.178	-328.605	 H	3	PRO3	0.021	
41	 3HG	350.716	76.711	-329.463	 H	3	PRO3	0.021	
42	 2HD	352.301	76.309	-326.899	 H	3	PRO3	0.039	
43	 3HD	351.115	77.594	-327.293	 H	3	PRO3	0.039	
44	   N	351.838	78.826	-330.666	N.am	4	GLU4	-0.516	
45	  CA	351.477	79.797	-331.695	C.3	4	GLU4	0.040	
46	   C	352.376	81.008	-331.634	C.2	4	GLU4	0.537	
47	   O	352.902	81.488	-332.649	O.2	4	GLU4	-0.582	
48	  CB	349.989	80.215	-331.525	C.3	4	GLU4	0.056	
49	  CG	349.440	81.218	-332.591	C.3	4	GLU4	0.014	
50	  CD	348.014	81.715	-332.447	C.2	4	GLU4	0.805	
51	 OE1	347.288	81.316	-331.516	O.co2	4	GLU4	-0.819	
52	 OE2	347.624	82.544	-333.295	O.co2	4	GLU4	-0.819	
53	   H	351.154	78.519	-329.989	 H	4	GLU4	0.294	
54	  HA	351.609	79.326	-332.687	 H	4	GLU4	0.111	
55	 2HB	349.837	80.655	-330.518	 H	4	GLU4	-0.017	
56	 3HB	349.341	79.317	-331.531	 H	4	GLU4	-0.017	
57	 2HG	349.522	80.804	-333.608	 H	4	GLU4	-0.043	
58	 3HG	350.028	82.151	-332.602	 H	4	GLU4	-0.043	
59	   N	352.604	81.561	-330.491	N.am	5	SER5	-0.416	
60	  CA	353.473	82.732	-330.433	C.3	5	SER5	-0.025	
61	   C	354.832	82.427	-331.019	C.2	5	SER5	0.597	
62	   O	355.378	83.181	-331.824	O.2	5	SER5	-0.568	
63	  CB	353.584	83.265	-328.982	C.3	5	SER5	0.212	
64	  OG	354.316	82.386	-328.121	O.3	5	SER5	-0.655	
65	   H	352.187	81.189	-329.650	 H	5	SER5	0.272	
66	  HA	353.023	83.522	-331.062	 H	5	SER5	0.084	
67	 2HB	352.585	83.458	-328.549	 H	5	SER5	0.035	
68	 3HB	354.089	84.251	-328.985	 H	5	SER5	0.035	
69	  HG	353.828	81.561	-328.071	 H	5	SER5	0.428	
70	   N	355.437	81.344	-330.665	N.am	6	ILE6	-0.416	
71	  CA	356.750	81.050	-331.231	C.3	6	ILE6	-0.060	
72	   C	356.693	81.012	-332.739	C.2	6	ILE6	0.597	
73	   O	357.527	81.601	-333.443	O.2	6	ILE6	-0.568	
74	  CB	357.350	79.714	-330.631	C.3	6	ILE6	0.130	
75	 CG1	357.370	79.652	-329.070	C.3	6	ILE6	-0.043	
76	 CG2	358.791	79.413	-331.147	C.3	6	ILE6	-0.320	
77	 CD1	357.640	78.263	-328.455	C.3	6	ILE6	-0.066	
78	   H	355.009	80.710	-330.006	 H	6	ILE6	0.272	
79	  HA	357.424	81.884	-330.963	 H	6	ILE6	0.087	
80	  HB	356.693	78.888	-330.975	 H	6	ILE6	0.019	
81	2HG1	356.388	79.971	-328.674	 H	6	ILE6	0.024	
82	3HG1	358.086	80.394	-328.666	 H	6	ILE6	0.024	
83	1HG2	358.850	79.319	-332.245	 H	6	ILE6	0.088	
84	2HG2	359.513	80.195	-330.845	 H	6	ILE6	0.088	
85	3HG2	359.182	78.451	-330.768	 H	6	ILE6	0.088	
86	1HD1	356.912	77.508	-328.810	 H	6	ILE6	0.019	
87	2HD1	358.651	77.884	-328.691	 H	6	ILE6	0.019	
88	3HD1	357.564	78.292	-327.353	 H	6	ILE6	0.019	
89	   N	355.747	80.349	-333.313	N.am	7	LEU7	-0.416	
90	  CA	355.692	80.313	-334.771	C.3	7	LEU7	-0.052	
91	   C	355.619	81.708	-335.343	C.2	7	LEU7	0.597	
92	   O	356.339	82.071	-336.285	O.2	7	LEU7	-0.568	
93	  CB	354.489	79.452	-335.251	C.3	7	LEU7	-0.110	
94	  CG	354.417	77.972	-334.785	C.3	7	LEU7	0.353	
95	 CD1	353.227	77.266	-335.450	C.3	7	LEU7	-0.412	
96	 CD2	355.711	77.194	-335.077	C.3	7	LEU7	-0.412	
97	   H	355.055	79.861	-332.761	 H	7	LEU7	0.272	
98	  HA	356.634	79.873	-335.146	 H	7	LEU7	0.092	
99	 2HB	354.466	79.468	-336.359	 H	7	LEU7	0.046	
100	 3HB	353.549	79.954	-334.947	 H	7	LEU7	0.046	
101	  HG	354.247	77.964	-333.688	 H	7	LEU7	-0.036	
102	1HD1	352.270	77.775	-335.228	 H	7	LEU7	0.100	
103	2HD1	353.326	77.226	-336.552	 H	7	LEU7	0.100	
104	3HD1	353.121	76.225	-335.094	 H	7	LEU7	0.100	
105	1HD2	355.986	77.224	-336.147	 H	7	LEU7	0.100	
106	2HD2	356.564	77.606	-334.506	 H	7	LEU7	0.100	
107	3HD2	355.630	76.131	-334.781	 H	7	LEU7	0.100	
108	   N	354.781	82.548	-334.837	N.am	8	ASP8	-0.516	
109	  CA	354.710	83.898	-335.390	C.3	8	ASP8	0.038	
110	   C	356.056	84.578	-335.333	C.2	8	ASP8	0.537	
111	   O	356.529	85.184	-336.307	O.2	8	ASP8	-0.582	
112	  CB	353.632	84.736	-334.648	C.3	8	ASP8	-0.030	
113	  CG	353.412	86.157	-335.188	C.2	8	ASP8	0.799	
114	 OD1	353.476	86.356	-336.419	O.co2	8	ASP8	-0.801	
115	 OD2	353.220	87.083	-334.372	O.co2	8	ASP8	-0.801	
116	   H	354.184	82.277	-334.069	 H	8	ASP8	0.294	
117	  HA	354.427	83.820	-336.457	 H	8	ASP8	0.088	
118	 2HB	353.889	84.819	-333.576	 H	8	ASP8	-0.012	
119	 3HB	352.653	84.231	-334.681	 H	8	ASP8	-0.012	
120	   N	356.736	84.528	-334.238	N.am	9	GLU9	-0.516	
121	  CA	358.039	85.187	-334.182	C.3	9	GLU9	0.040	
122	   C	358.957	84.659	-335.258	C.2	9	GLU9	0.537	
123	   O	359.621	85.414	-335.984	O.2	9	GLU9	-0.582	
124	  CB	358.673	84.979	-332.777	C.3	9	GLU9	0.056	
125	  CG	360.055	85.672	-332.548	C.3	9	GLU9	0.014	
126	  CD	360.757	85.459	-331.220	C.2	9	GLU9	0.805	
127	 OE1	360.236	84.767	-330.323	O.co2	9	GLU9	-0.819	
128	 OE2	361.876	85.997	-331.088	O.co2	9	GLU9	-0.819	
129	   H	356.373	84.042	-333.431	 H	9	GLU9	0.294	
130	  HA	357.896	86.268	-334.357	 H	9	GLU9	0.111	
131	 2HB	358.786	83.894	-332.574	 H	9	GLU9	-0.017	
132	 3HB	357.976	85.332	-331.993	 H	9	GLU9	-0.017	
133	 2HG	359.983	86.763	-332.687	 H	9	GLU9	-0.043	
134	 3HG	360.802	85.327	-333.282	 H	9	GLU9	-0.043	
135	   N	359.054	83.384	-335.428	N.am	10	HIS10	-0.416	
136	  CA	359.942	82.874	-336.469	C.3	10	HIS10	-0.058	
137	   C	359.575	83.438	-337.820	C.2	10	HIS10	0.597	
138	   O	360.427	83.904	-338.591	O.2	10	HIS10	-0.568	
139	  CB	359.779	81.345	-336.464	C.3	10	HIS10	-0.007	
140	  CG	361.065	80.635	-336.156	C.2	10	HIS10	0.187	
141	 CD2	361.446	80.300	-334.864	C.2	10	HIS10	-0.221	
142	 ND1	362.017	80.230	-337.089	N.2	10	HIS10	-0.543	
143	 CE1	362.924	79.672	-336.266	C.2	10	HIS10	0.163	
144	 NE2	362.661	79.669	-334.930	N.pl3	10	HIS10	-0.280	
145	   H	358.524	82.749	-334.850	 H	10	HIS10	0.272	
146	  HA	360.961	83.231	-336.244	 H	10	HIS10	0.136	
147	 2HB	359.414	80.978	-337.444	 H	10	HIS10	0.037	
148	 3HB	359.023	81.007	-335.724	 H	10	HIS10	0.037	
149	 2HD	360.860	80.514	-333.974	 H	10	HIS10	0.186	
150	 1HE	363.815	79.251	-336.713	 H	10	HIS10	0.144	
151	 2HE	363.228	79.291	-334.157	 H	10	HIS10	0.334	
152	   N	358.337	83.437	-338.182	N.am	11	VAL11	-0.416	
153	  CA	357.982	83.983	-339.489	C.3	11	VAL11	-0.087	
154	   C	358.445	85.414	-339.621	C.2	11	VAL11	0.597	
155	   O	359.046	85.819	-340.624	O.2	11	VAL11	-0.568	
156	  CB	356.420	83.875	-339.708	C.3	11	VAL11	0.299	
157	 CG1	355.851	84.579	-340.971	C.3	11	VAL11	-0.319	
158	 CG2	355.897	82.421	-339.782	C.3	11	VAL11	-0.319	
159	   H	357.624	83.063	-337.572	 H	11	VAL11	0.272	
160	  HA	358.501	83.401	-340.272	 H	11	VAL11	0.097	
161	  HB	355.933	84.355	-338.833	 H	11	VAL11	-0.030	
162	1HG1	356.290	84.188	-341.908	 H	11	VAL11	0.079	
163	2HG1	354.752	84.472	-341.053	 H	11	VAL11	0.079	
164	3HG1	356.029	85.672	-340.961	 H	11	VAL11	0.079	
165	1HG2	356.187	81.834	-338.891	 H	11	VAL11	0.079	
166	2HG2	354.791	82.383	-339.824	 H	11	VAL11	0.079	
167	3HG2	356.278	81.881	-340.668	 H	11	VAL11	0.079	
168	   N	358.208	86.239	-338.659	N.am	12	GLN12	-0.416	
169	  CA	358.655	87.622	-338.786	C.3	12	GLN12	-0.003	
170	   C	360.145	87.691	-339.024	C.2	12	GLN12	0.597	
171	   O	360.632	88.399	-339.902	O.2	12	GLN12	-0.568	
172	  CB	358.264	88.389	-337.503	C.3	12	GLN12	-0.004	
173	  CG	358.624	89.911	-337.471	C.3	12	GLN12	-0.064	
174	  CD	358.321	90.724	-336.206	C.2	12	GLN12	0.695	
175	 NE2	357.754	90.147	-335.177	N.pl3	12	GLN12	-0.941	
176	 OE1	358.622	91.905	-336.128	O.2	12	GLN12	-0.609	
177	   H	357.719	85.933	-337.830	 H	12	GLN12	0.272	
178	  HA	358.156	88.079	-339.660	 H	12	GLN12	0.085	
179	 2HB	358.741	87.889	-336.634	 H	12	GLN12	0.017	
180	 3HB	357.174	88.281	-337.339	 H	12	GLN12	0.017	
181	 2HG	358.146	90.432	-338.322	 H	12	GLN12	0.035	
182	 3HG	359.707	90.054	-337.637	 H	12	GLN12	0.035	
183	1HE2	357.647	90.741	-334.354	 H	12	GLN12	0.425	
184	2HE2	357.591	89.144	-335.281	 H	12	GLN12	0.425	
185	   N	360.930	86.984	-338.283	N.am	13	ARG13	-0.348	
186	  CA	362.371	87.051	-338.514	C.3	13	ARG13	-0.264	
187	   C	362.707	86.680	-339.939	C.2	13	ARG13	0.734	
188	   O	363.475	87.352	-340.623	O.2	13	ARG13	-0.589	
189	  CB	363.085	86.112	-337.500	C.3	13	ARG13	-0.001	
190	  CG	364.629	86.266	-337.419	C.3	13	ARG13	0.039	
191	  CD	365.257	85.278	-336.422	C.3	13	ARG13	0.049	
192	  NE	366.734	85.486	-336.371	N.pl3	13	ARG13	-0.530	
193	  CZ	367.583	84.795	-335.616	C.cat	13	ARG13	0.808	
194	 NH1	367.218	83.830	-334.819	N.pl3	13	ARG13	-0.863	
195	 NH2	368.842	85.095	-335.673	N.pl3	13	ARG13	-0.863	
196	   H	360.555	86.394	-337.555	 H	13	ARG13	0.275	
197	  HA	362.694	88.097	-338.355	 H	13	ARG13	0.156	
198	 2HB	362.819	85.061	-337.740	 H	13	ARG13	0.033	
199	 3HB	362.659	86.278	-336.490	 H	13	ARG13	0.033	
200	 2HG	364.877	87.311	-337.140	 H	13	ARG13	0.029	
201	 3HG	365.080	86.110	-338.421	 H	13	ARG13	0.029	
202	 2HD	365.013	84.238	-336.731	 H	13	ARG13	0.069	
203	 3HD	364.801	85.423	-335.419	 H	13	ARG13	0.069	
204	  HE	367.185	86.209	-336.942	 H	13	ARG13	0.346	
205	1HH1	366.213	83.643	-334.822	 H	13	ARG13	0.448	
206	2HH1	367.932	83.347	-334.271	 H	13	ARG13	0.448	
207	1HH2	369.109	85.853	-336.304	 H	13	ARG13	0.448	
208	2HH2	369.477	84.553	-335.085	 H	13	ARG13	0.448	
209	   N	362.171	85.625	-340.454	N.am	14	VAL14	-0.416	
210	  CA	362.496	85.266	-341.831	C.3	14	VAL14	-0.087	
211	   C	362.165	86.396	-342.777	C.2	14	VAL14	0.597	
212	   O	362.958	86.778	-343.646	O.2	14	VAL14	-0.568	
213	  CB	361.724	83.949	-342.238	C.3	14	VAL14	0.299	
214	 CG1	361.813	83.531	-343.732	C.3	14	VAL14	-0.319	
215	 CG2	362.157	82.697	-341.438	C.3	14	VAL14	-0.319	
216	   H	361.537	85.056	-339.912	 H	14	VAL14	0.272	
217	  HA	363.584	85.090	-341.906	 H	14	VAL14	0.097	
218	  HB	360.648	84.119	-342.022	 H	14	VAL14	-0.030	
219	1HG1	362.855	83.354	-344.061	 H	14	VAL14	0.079	
220	2HG1	361.241	82.607	-343.945	 H	14	VAL14	0.079	
221	3HG1	361.384	84.293	-344.410	 H	14	VAL14	0.079	
222	1HG2	362.070	82.855	-340.348	 H	14	VAL14	0.079	
223	2HG2	361.522	81.820	-341.671	 H	14	VAL14	0.079	
224	3HG2	363.205	82.407	-341.644	 H	14	VAL14	0.079	
225	   N	361.020	86.981	-342.674	N.am	15	MET15	-0.416	
226	  CA	360.699	88.074	-343.588	C.3	15	MET15	-0.024	
227	   C	361.729	89.174	-343.500	C.2	15	MET15	0.597	
228	   O	362.231	89.686	-344.513	O.2	15	MET15	-0.568	
229	  CB	359.278	88.619	-343.279	C.3	15	MET15	0.034	
230	  CG	358.116	87.620	-343.471	C.3	15	MET15	0.002	
231	  SD	356.542	88.486	-343.356	S.3	15	MET15	-0.274	
232	  CE	355.461	87.055	-343.220	C.3	15	MET15	-0.054	
233	   H	360.356	86.688	-341.973	 H	15	MET15	0.272	
234	  HA	360.725	87.687	-344.624	 H	15	MET15	0.088	
235	 2HB	359.075	89.498	-343.921	 H	15	MET15	0.024	
236	 3HB	359.242	89.011	-342.242	 H	15	MET15	0.024	
237	 2HG	358.159	86.834	-342.693	 H	15	MET15	0.044	
238	 3HG	358.179	87.105	-344.447	 H	15	MET15	0.044	
239	 1HE	355.605	86.367	-344.072	 H	15	MET15	0.068	
240	 2HE	355.671	86.503	-342.287	 H	15	MET15	0.068	
241	 3HE	354.403	87.370	-343.203	 H	15	MET15	0.068	
242	   N	362.097	89.596	-342.338	N.am	16	ARG16	-0.348	
243	  CA	363.094	90.660	-342.254	C.3	16	ARG16	-0.264	
244	   C	364.364	90.268	-342.970	C.2	16	ARG16	0.734	
245	   O	364.479	89.192	-343.552	O.2	16	ARG16	-0.589	
246	  CB	363.362	90.978	-340.755	C.3	16	ARG16	-0.001	
247	  CG	364.187	92.267	-340.482	C.3	16	ARG16	0.039	
248	  CD	364.437	92.486	-338.981	C.3	16	ARG16	0.049	
249	  NE	365.212	93.745	-338.780	N.pl3	16	ARG16	-0.530	
250	  CZ	365.603	94.228	-337.604	C.cat	16	ARG16	0.808	
251	 NH1	365.356	93.643	-336.466	N.pl3	16	ARG16	-0.863	
252	 NH2	366.267	95.341	-337.586	N.pl3	16	ARG16	-0.863	
253	   H	361.703	89.195	-341.499	 H	16	ARG16	0.275	
254	  HA	362.684	91.553	-342.764	 H	16	ARG16	0.156	
255	 2HB	363.860	90.102	-340.289	 H	16	ARG16	0.033	
256	 3HB	362.394	91.058	-340.222	 H	16	ARG16	0.033	
257	 2HG	363.656	93.138	-340.919	 H	16	ARG16	0.029	
258	 3HG	365.161	92.215	-341.012	 H	16	ARG16	0.029	
259	 2HD	364.986	91.612	-338.568	 H	16	ARG16	0.069	
260	 3HD	363.464	92.528	-338.446	 H	16	ARG16	0.069	
261	  HE	365.490	94.327	-339.577	 H	16	ARG16	0.346	
262	1HH1	364.831	92.770	-336.551	 H	16	ARG16	0.448	
263	2HH1	365.690	94.079	-335.605	 H	16	ARG16	0.448	
264	1HH2	366.452	95.784	-338.487	 H	16	ARG16	0.448	
265	2HH2	366.557	95.696	-336.673	 H	16	ARG16	0.448	
@<TRIPOS>BOND
1 1 2 1
2 1 10 1
3 2 3 1
4 2 5 1
5 2 11 1
6 3 4 2
7 3 16 1
8 5 6 1
9 6 7 1
10 7 8 2
11 7 9 1
12 5 12 1
13 5 13 1
14 6 14 1
15 6 15 1
16 16 17 1
17 16 24 1
18 17 18 1
19 17 20 1
20 17 25 1
21 18 19 2
22 18 30 1
23 20 21 1
24 21 22 1
25 21 23 2
26 20 26 1
27 20 27 1
28 22 28 1
29 22 29 1
30 30 31 1
31 30 36 1
32 31 32 1
33 31 34 1
34 31 37 1
35 32 33 2
36 32 44 1
37 34 35 1
38 35 36 1
39 34 38 1
40 34 39 1
41 35 40 1
42 35 41 1
43 36 42 1
44 36 43 1
45 44 45 1
46 44 53 1
47 45 46 1
48 45 48 1
49 45 54 1
50 46 47 2
51 46 59 1
52 48 49 1
53 49 50 1
54 50 51 2
55 50 52 1
56 48 55 1
57 48 56 1
58 49 57 1
59 49 58 1
60 59 60 1
61 59 65 1
62 60 61 1
63 60 63 1
64 60 66 1
65 61 62 2
66 61 70 1
67 63 64 1
68 63 67 1
69 63 68 1
70 64 69 1
71 70 71 1
72 70 78 1
73 71 72 1
74 71 74 1
75 71 79 1
76 72 73 2
77 72 89 1
78 74 75 1
79 74 76 1
80 75 77 1
81 74 80 1
82 75 81 1
83 75 82 1
84 76 83 1
85 76 84 1
86 76 85 1
87 77 86 1
88 77 87 1
89 77 88 1
90 89 90 1
91 89 97 1
92 90 91 1
93 90 93 1
94 90 98 1
95 91 92 2
96 91 108 1
97 93 94 1
98 94 95 1
99 94 96 1
100 93 99 1
101 93 100 1
102 94 101 1
103 95 102 1
104 95 103 1
105 95 104 1
106 96 105 1
107 96 106 1
108 96 107 1
109 108 109 1
110 108 116 1
111 109 110 1
112 109 112 1
113 109 117 1
114 110 111 2
115 110 120 1
116 112 113 1
117 113 114 2
118 113 115 1
119 112 118 1
120 112 119 1
121 120 121 1
122 120 129 1
123 121 122 1
124 121 124 1
125 121 130 1
126 122 123 2
127 122 135 1
128 124 125 1
129 125 126 1
130 126 127 2
131 126 128 1
132 124 131 1
133 124 132 1
134 125 133 1
135 125 134 1
136 135 136 1
137 135 145 1
138 136 137 1
139 136 139 1
140 136 146 1
141 137 138 2
142 137 152 1
143 139 140 1
144 140 141 2
145 141 144 1
146 140 142 1
147 142 143 2
148 143 144 1
149 139 147 1
150 139 148 1
151 141 149 1
152 143 150 1
153 144 151 1
154 152 153 1
155 152 159 1
156 153 154 1
157 153 156 1
158 153 160 1
159 154 155 2
160 154 168 1
161 156 157 1
162 156 158 1
163 156 161 1
164 157 162 1
165 157 163 1
166 157 164 1
167 158 165 1
168 158 166 1
169 158 167 1
170 168 169 1
171 168 177 1
172 169 170 1
173 169 172 1
174 169 178 1
175 170 171 2
176 170 185 1
177 172 173 1
178 173 174 1
179 174 175 1
180 174 176 2
181 172 179 1
182 172 180 1
183 173 181 1
184 173 182 1
185 175 183 1
186 175 184 1
187 185 186 1
188 185 196 1
189 186 187 1
190 186 189 1
191 186 197 1
192 187 188 2
193 187 209 1
194 189 190 1
195 190 191 1
196 191 192 1
197 192 193 1
198 193 194 2
199 193 195 1
200 189 198 1
201 189 199 1
202 190 200 1
203 190 201 1
204 191 202 1
205 191 203 1
206 192 204 1
207 194 205 1
208 194 206 1
209 195 207 1
210 195 208 1
211 209 210 1
212 209 216 1
213 210 211 1
214 210 213 1
215 210 217 1
216 211 212 2
217 211 225 1
218 213 214 1
219 213 215 1
220 213 218 1
221 214 219 1
222 214 220 1
223 214 221 1
224 215 222 1
225 215 223 1
226 215 224 1
227 225 226 1
228 225 233 1
229 226 227 1
230 226 229 1
231 226 234 1
232 227 228 2
233 227 242 1
234 229 230 1
235 230 231 1
236 231 232 1
237 229 235 1
238 229 236 1
239 230 237 1
240 230 238 1
241 232 239 1
242 232 240 1
243 232 241 1
244 242 243 1
245 242 253 1
246 243 244 1
247 243 246 1
248 243 254 1
249 244 245 2
250 246 247 1
251 247 248 1
252 248 249 1
253 249 250 1
254 250 251 2
255 250 252 1
256 246 255 1
257 246 256 1
258 247 257 1
259 247 258 1
260 248 259 1
261 248 260 1
262 249 261 1
263 251 262 1
264 251 263 1
265 252 264 1
266 252 265 1
@<TRIPOS>SUBSTRUCTURE
1	GLU1	1	RESIDUE	1 ****	GLU
2	ASN2	16	RESIDUE	1 ****	ASN
3	PRO3	30	RESIDUE	1 ****	PRO
4	GLU4	44	RESIDUE	1 ****	GLU
5	SER5	59	RESIDUE	1 ****	SER
6	ILE6	70	RESIDUE	1 ****	ILE
7	LEU7	89	RESIDUE	1 ****	LEU
8	ASP8	108	RESIDUE	1 ****	ASP
9	GLU9	120	RESIDUE	1 ****	GLU
10	HIS10	135	RESIDUE	1 ****	HIS
11	VAL11	152	RESIDUE	1 ****	VAL
12	GLN12	168	RESIDUE	1 ****	GLN
13	ARG13	185	RESIDUE	1 ****	ARG
14	VAL14	209	RESIDUE	1 ****	VAL
15	MET15	225	RESIDUE	1 ****	MET
16	ARG16	242	RESIDUE	1 ****	ARG
