@<TRIPOS>MOLECULE
1-4
266 267 16              
SMALL
USER_CHARGES
@<TRIPOS>ATOM
1	   N	25.840	-0.011	-7.271	N.3	1	VAL1	-0.416	
2	  CA	26.361	1.353	-7.271	C.3	1	VAL1	-0.087	
3	   C	27.871	1.355	-7.271	C.2	1	VAL1	0.597	
4	   O	28.527	2.072	-8.038	O.2	1	VAL1	-0.568	
5	  CB	25.798	2.142	-6.023	C.3	1	VAL1	0.299	
6	 CG1	26.399	3.552	-5.770	C.3	1	VAL1	-0.319	
7	 CG2	24.265	2.352	-6.054	C.3	1	VAL1	-0.319	
8	   H	26.492	-0.873	-7.271	 H	1	VAL1	0.272	
9	  HA	26.037	1.858	-8.199	 H	1	VAL1	0.097	
10	  HB	26.027	1.535	-5.121	 H	1	VAL1	-0.030	
11	1HG1	26.244	4.238	-6.624	 H	1	VAL1	0.079	
12	2HG1	25.966	4.039	-4.875	 H	1	VAL1	0.079	
13	3HG1	27.488	3.518	-5.575	 H	1	VAL1	0.079	
14	1HG2	23.721	1.396	-6.164	 H	1	VAL1	0.079	
15	2HG2	23.893	2.808	-5.116	 H	1	VAL1	0.079	
16	3HG2	23.947	3.007	-6.887	 H	1	VAL1	0.079	
17	   N	28.497	0.587	-6.445	N.am	2	ASN2	-0.416	
18	  CA	29.957	0.588	-6.445	C.3	2	ASN2	0.014	
19	   C	30.498	0.248	-7.814	C.2	2	ASN2	0.597	
20	   O	31.395	0.903	-8.342	O.2	2	ASN2	-0.568	
21	  CB	30.477	-0.421	-5.381	C.3	2	ASN2	-0.204	
22	  CG	30.008	-0.210	-3.937	C.2	2	ASN2	0.713	
23	 ND2	30.576	0.721	-3.219	N.pl3	2	ASN2	-0.919	
24	 OD1	29.105	-0.869	-3.443	O.2	2	ASN2	-0.593	
25	   H	27.985	-0.007	-5.809	 H	2	ASN2	0.272	
26	  HA	30.306	1.608	-6.200	 H	2	ASN2	0.105	
27	 2HB	31.583	-0.449	-5.384	 H	2	ASN2	0.080	
28	 3HB	30.176	-1.448	-5.667	 H	2	ASN2	0.080	
29	1HD2	30.091	0.881	-2.333	 H	2	ASN2	0.420	
30	2HD2	31.262	1.312	-3.688	 H	2	ASN2	0.420	
31	   N	30.005	-0.761	-8.448	N.am	3	PRO3	-0.255	
32	  CA	30.468	-1.158	-9.769	C.3	3	PRO3	-0.027	
33	   C	30.041	-0.146	-10.846	C.2	3	PRO3	0.590	
34	   O	30.854	0.260	-11.678	O.2	3	PRO3	-0.575	
35	  CB	29.801	-2.532	-9.939	C.3	3	PRO3	-0.007	
36	  CG	28.514	-2.415	-9.109	C.3	3	PRO3	0.019	
37	  CD	28.949	-1.584	-7.899	C.3	3	PRO3	0.019	
38	  HA	31.557	-1.248	-9.783	 H	3	PRO3	0.064	
39	 2HB	30.446	-3.295	-9.498	 H	3	PRO3	0.025	
40	 3HB	29.610	-2.786	-10.984	 H	3	PRO3	0.025	
41	 2HG	28.114	-3.389	-8.818	 H	3	PRO3	0.021	
42	 3HG	27.761	-1.865	-9.676	 H	3	PRO3	0.021	
43	 2HD	29.356	-2.223	-7.111	 H	3	PRO3	0.039	
44	 3HD	28.135	-0.971	-7.506	 H	3	PRO3	0.039	
45	   N	28.824	0.280	-10.879	N.am	4	GLU4	-0.516	
46	  CA	28.438	1.241	-11.908	C.3	4	GLU4	0.040	
47	   C	29.303	2.477	-11.847	C.2	4	GLU4	0.537	
48	   O	29.816	2.971	-12.861	O.2	4	GLU4	-0.582	
49	  CB	26.938	1.618	-11.738	C.3	4	GLU4	0.056	
50	  CG	26.363	2.606	-12.804	C.3	4	GLU4	0.014	
51	  CD	24.923	3.063	-12.660	C.2	4	GLU4	0.805	
52	 OE1	24.208	2.644	-11.730	O.co2	4	GLU4	-0.819	
53	 OE2	24.510	3.881	-13.509	O.co2	4	GLU4	-0.819	
54	   H	28.149	-0.045	-10.202	 H	4	GLU4	0.294	
55	  HA	28.582	0.774	-12.900	 H	4	GLU4	0.111	
56	 2HB	26.774	2.054	-10.731	 H	4	GLU4	-0.017	
57	 3HB	26.316	0.703	-11.745	 H	4	GLU4	-0.017	
58	 2HG	26.456	2.194	-13.822	 H	4	GLU4	-0.043	
59	 3HG	26.925	3.554	-12.815	 H	4	GLU4	-0.043	
60	   N	29.515	3.036	-10.704	N.am	5	SER5	-0.416	
61	  CA	30.351	4.231	-10.645	C.3	5	SER5	-0.025	
62	   C	31.718	3.963	-11.231	C.2	5	SER5	0.597	
63	   O	32.244	4.731	-12.036	O.2	5	SER5	-0.568	
64	  CB	30.448	4.766	-9.195	C.3	5	SER5	0.212	
65	  OG	31.204	3.907	-8.334	O.3	5	SER5	-0.655	
66	   H	29.108	2.652	-9.862	 H	5	SER5	0.272	
67	  HA	29.880	5.008	-11.275	 H	5	SER5	0.084	
68	 2HB	29.443	4.931	-8.762	 H	5	SER5	0.035	
69	 3HB	30.925	5.765	-9.197	 H	5	SER5	0.035	
70	  HG	30.738	3.069	-8.283	 H	5	SER5	0.428	
71	   N	32.353	2.897	-10.877	N.am	6	ILE6	-0.416	
72	  CA	33.674	2.639	-11.443	C.3	6	ILE6	-0.060	
73	   C	33.618	2.600	-12.950	C.2	6	ILE6	0.597	
74	   O	34.436	3.211	-13.654	O.2	6	ILE6	-0.568	
75	  CB	34.310	1.320	-10.843	C.3	6	ILE6	0.130	
76	 CG1	34.331	1.259	-9.282	C.3	6	ILE6	-0.043	
77	 CG2	35.760	1.059	-11.358	C.3	6	ILE6	-0.320	
78	 CD1	34.640	-0.123	-8.667	C.3	6	ILE6	-0.066	
79	   H	31.942	2.251	-10.218	 H	6	ILE6	0.272	
80	  HA	34.324	3.492	-11.175	 H	6	ILE6	0.087	
81	  HB	33.676	0.476	-11.187	 H	6	ILE6	0.019	
82	2HG1	33.341	1.551	-8.886	 H	6	ILE6	0.024	
83	3HG1	35.026	2.020	-8.877	 H	6	ILE6	0.024	
84	1HG2	35.821	0.967	-12.456	 H	6	ILE6	0.088	
85	2HG2	36.460	1.861	-11.055	 H	6	ILE6	0.088	
86	3HG2	36.176	0.108	-10.979	 H	6	ILE6	0.088	
87	1HD1	33.933	-0.897	-9.021	 H	6	ILE6	0.019	
88	2HD1	35.661	-0.473	-8.902	 H	6	ILE6	0.019	
89	3HD1	34.563	-0.095	-7.564	 H	6	ILE6	0.019	
90	   N	32.691	1.910	-13.524	N.am	7	LEU7	-0.416	
91	  CA	32.637	1.873	-14.983	C.3	7	LEU7	-0.052	
92	   C	32.526	3.265	-15.555	C.2	7	LEU7	0.597	
93	   O	33.236	3.648	-16.497	O.2	7	LEU7	-0.568	
94	  CB	31.459	0.979	-15.463	C.3	7	LEU7	-0.110	
95	  CG	31.427	-0.502	-14.997	C.3	7	LEU7	0.353	
96	 CD1	30.257	-1.240	-15.663	C.3	7	LEU7	-0.412	
97	 CD2	32.742	-1.244	-15.288	C.3	7	LEU7	-0.412	
98	   H	32.013	1.404	-12.973	 H	7	LEU7	0.272	
99	  HA	33.591	1.459	-15.357	 H	7	LEU7	0.092	
100	 2HB	31.435	0.995	-16.571	 H	7	LEU7	0.046	
101	 3HB	30.505	1.456	-15.159	 H	7	LEU7	0.046	
102	  HG	31.257	-0.514	-13.900	 H	7	LEU7	-0.036	
103	1HD1	29.286	-0.758	-15.440	 H	7	LEU7	0.100	
104	2HD1	30.358	-1.278	-16.764	 H	7	LEU7	0.100	
105	3HD1	30.180	-2.284	-15.307	 H	7	LEU7	0.100	
106	1HD2	33.016	-1.206	-16.358	 H	7	LEU7	0.100	
107	2HD2	33.583	-0.809	-14.717	 H	7	LEU7	0.100	
108	3HD2	32.690	-2.309	-14.992	 H	7	LEU7	0.100	
109	   N	31.665	4.082	-15.049	N.am	8	ASP8	-0.516	
110	  CA	31.557	5.429	-15.602	C.3	8	ASP8	0.038	
111	   C	32.884	6.147	-15.545	C.2	8	ASP8	0.537	
112	   O	33.340	6.765	-16.519	O.2	8	ASP8	-0.582	
113	  CB	30.456	6.238	-14.861	C.3	8	ASP8	-0.030	
114	  CG	30.198	7.652	-15.401	C.2	8	ASP8	0.799	
115	 OD1	30.256	7.853	-16.632	O.co2	8	ASP8	-0.801	
116	 OD2	29.980	8.572	-14.585	O.co2	8	ASP8	-0.801	
117	   H	31.075	3.795	-14.282	 H	8	ASP8	0.294	
118	  HA	31.277	5.344	-16.669	 H	8	ASP8	0.088	
119	 2HB	30.711	6.328	-13.789	 H	8	ASP8	-0.012	
120	 3HB	29.492	5.706	-14.894	 H	8	ASP8	-0.012	
121	   N	33.565	6.116	-14.449	N.am	9	GLU9	-0.516	
122	  CA	34.849	6.809	-14.394	C.3	9	GLU9	0.040	
123	   C	35.782	6.308	-15.470	C.2	9	GLU9	0.537	
124	   O	36.424	7.081	-16.195	O.2	9	GLU9	-0.582	
125	  CB	35.488	6.619	-12.988	C.3	9	GLU9	0.056	
126	  CG	36.851	7.350	-12.759	C.3	9	GLU9	0.014	
127	  CD	37.558	7.156	-11.430	C.2	9	GLU9	0.805	
128	 OE1	37.056	6.451	-10.534	O.co2	9	GLU9	-0.819	
129	 OE2	38.662	7.725	-11.298	O.co2	9	GLU9	-0.819	
130	   H	33.216	5.619	-13.642	 H	9	GLU9	0.294	
131	  HA	34.677	7.887	-14.569	 H	9	GLU9	0.111	
132	 2HB	35.631	5.538	-12.785	 H	9	GLU9	-0.017	
133	 3HB	34.781	6.953	-12.204	 H	9	GLU9	-0.017	
134	 2HG	36.748	8.438	-12.898	 H	9	GLU9	-0.043	
135	 3HG	37.607	7.026	-13.493	 H	9	GLU9	-0.043	
136	   N	35.914	5.036	-15.639	N.am	10	HIS10	-0.416	
137	  CA	36.816	4.550	-16.680	C.3	10	HIS10	-0.058	
138	   C	36.434	5.104	-18.031	C.2	10	HIS10	0.597	
139	   O	37.273	5.592	-18.802	O.2	10	HIS10	-0.568	
140	  CB	36.695	3.017	-16.675	C.3	10	HIS10	-0.007	
141	  CG	38.000	2.343	-16.367	C.2	10	HIS10	0.187	
142	 CD2	38.390	2.018	-15.074	C.2	10	HIS10	-0.221	
143	 ND1	38.963	1.964	-17.299	N.2	10	HIS10	-0.543	
144	 CE1	39.885	1.431	-16.476	C.2	10	HIS10	0.163	
145	 NE2	39.622	1.421	-15.141	N.pl3	10	HIS10	-0.280	
146	   H	35.401	4.386	-15.061	 H	10	HIS10	0.272	
147	  HA	37.825	4.935	-16.454	 H	10	HIS10	0.136	
148	 2HB	36.340	2.640	-17.655	 H	10	HIS10	0.037	
149	 3HB	35.949	2.658	-15.935	 H	10	HIS10	0.037	
150	 2HD	37.798	2.217	-14.185	 H	10	HIS10	0.186	
151	 1HE	40.787	1.036	-16.923	 H	10	HIS10	0.144	
152	 2HE	40.199	1.060	-14.367	 H	10	HIS10	0.334	
153	   N	35.196	5.068	-18.394	N.am	11	VAL11	-0.416	
154	  CA	34.826	5.604	-19.701	C.3	11	VAL11	-0.087	
155	   C	35.250	7.047	-19.833	C.2	11	VAL11	0.597	
156	   O	35.840	7.469	-20.836	O.2	11	VAL11	-0.568	
157	  CB	33.269	5.454	-19.920	C.3	11	VAL11	0.299	
158	 CG1	32.681	6.142	-21.183	C.3	11	VAL11	-0.319	
159	 CG2	32.785	3.986	-19.994	C.3	11	VAL11	-0.319	
160	   H	34.494	4.675	-17.783	 H	11	VAL11	0.272	
161	  HA	35.362	5.037	-20.483	 H	11	VAL11	0.097	
162	  HB	32.768	5.920	-19.045	 H	11	VAL11	-0.030	
163	1HG1	33.130	5.763	-22.120	 H	11	VAL11	0.079	
164	2HG1	31.585	6.004	-21.265	 H	11	VAL11	0.079	
165	3HG1	32.828	7.239	-21.174	 H	11	VAL11	0.079	
166	1HG2	33.091	3.407	-19.103	 H	11	VAL11	0.079	
167	2HG2	31.681	3.918	-20.037	 H	11	VAL11	0.079	
168	3HG2	33.182	3.456	-20.880	 H	11	VAL11	0.079	
169	   N	34.990	7.866	-18.870	N.am	12	GLN12	-0.416	
170	  CA	35.399	9.261	-18.997	C.3	12	GLN12	-0.003	
171	   C	36.887	9.370	-19.235	C.2	12	GLN12	0.597	
172	   O	37.354	10.092	-20.113	O.2	12	GLN12	-0.568	
173	  CB	34.987	10.017	-17.714	C.3	12	GLN12	-0.004	
174	  CG	35.304	11.548	-17.683	C.3	12	GLN12	-0.064	
175	  CD	34.979	12.353	-16.418	C.2	12	GLN12	0.695	
176	 NE2	34.428	11.760	-15.389	N.pl3	12	GLN12	-0.941	
177	 OE1	35.247	13.542	-16.340	O.2	12	GLN12	-0.609	
178	   H	34.510	7.546	-18.041	 H	12	GLN12	0.272	
179	  HA	34.888	9.703	-19.872	 H	12	GLN12	0.085	
180	 2HB	35.477	9.530	-16.845	 H	12	GLN12	0.017	
181	 3HB	33.900	9.879	-17.551	 H	12	GLN12	0.017	
182	 2HG	34.812	12.056	-18.534	 H	12	GLN12	0.035	
183	 3HG	36.383	11.721	-17.848	 H	12	GLN12	0.035	
184	1HE2	34.304	12.351	-14.566	 H	12	GLN12	0.425	
185	2HE2	34.293	10.753	-15.493	 H	12	GLN12	0.425	
186	   N	37.691	8.686	-18.494	N.am	13	ARG13	-0.348	
187	  CA	39.129	8.792	-18.724	C.3	13	ARG13	-0.264	
188	   C	39.476	8.430	-20.149	C.2	13	ARG13	0.734	
189	   O	40.225	9.123	-20.833	O.2	13	ARG13	-0.589	
190	  CB	39.868	7.873	-17.710	C.3	13	ARG13	-0.001	
191	  CG	41.408	8.070	-17.629	C.3	13	ARG13	0.039	
192	  CD	42.062	7.100	-16.631	C.3	13	ARG13	0.049	
193	  NE	43.533	7.349	-16.581	N.pl3	13	ARG13	-0.530	
194	  CZ	44.400	6.681	-15.825	C.cat	13	ARG13	0.808	
195	 NH1	44.062	5.706	-15.028	N.pl3	13	ARG13	-0.863	
196	 NH2	45.651	7.015	-15.882	N.pl3	13	ARG13	-0.863	
197	   H	37.331	8.085	-17.766	 H	13	ARG13	0.275	
198	  HA	39.424	9.847	-18.566	 H	13	ARG13	0.156	
199	 2HB	39.631	6.816	-17.950	 H	13	ARG13	0.033	
200	 3HB	39.438	8.028	-16.700	 H	13	ARG13	0.033	
201	 2HG	41.627	9.121	-17.349	 H	13	ARG13	0.029	
202	 3HG	41.863	7.927	-18.630	 H	13	ARG13	0.029	
203	 2HD	41.848	6.053	-16.941	 H	13	ARG13	0.069	
204	 3HD	41.602	7.232	-15.629	 H	13	ARG13	0.069	
205	  HE	43.964	8.083	-17.151	 H	13	ARG13	0.346	
206	1HH1	43.062	5.492	-15.032	 H	13	ARG13	0.448	
207	2HH1	44.789	5.244	-14.479	 H	13	ARG13	0.448	
208	1HH2	45.897	7.780	-16.513	 H	13	ARG13	0.448	
209	2HH2	46.301	6.492	-15.293	 H	13	ARG13	0.448	
210	   N	38.969	7.361	-20.664	N.am	14	VAL14	-0.416	
211	  CA	39.305	7.012	-22.041	C.3	14	VAL14	-0.087	
212	   C	38.943	8.132	-22.987	C.2	14	VAL14	0.597	
213	   O	39.726	8.536	-23.856	O.2	14	VAL14	-0.568	
214	  CB	38.570	5.673	-22.449	C.3	14	VAL14	0.299	
215	 CG1	38.671	5.258	-23.942	C.3	14	VAL14	-0.319	
216	 CG2	39.036	4.434	-21.649	C.3	14	VAL14	-0.319	
217	   H	38.351	6.775	-20.122	 H	14	VAL14	0.272	
218	  HA	40.397	6.866	-22.116	 H	14	VAL14	0.097	
219	  HB	37.489	5.814	-22.233	 H	14	VAL14	-0.030	
220	1HG1	39.717	5.110	-24.271	 H	14	VAL14	0.079	
221	2HG1	38.124	4.319	-24.155	 H	14	VAL14	0.079	
222	3HG1	38.220	6.008	-24.620	 H	14	VAL14	0.079	
223	1HG2	38.945	4.589	-20.558	 H	14	VAL14	0.079	
224	2HG2	38.425	3.540	-21.881	 H	14	VAL14	0.079	
225	3HG2	40.092	4.173	-21.854	 H	14	VAL14	0.079	
226	   N	37.782	8.685	-22.885	N.am	15	MET15	-0.416	
227	  CA	37.431	9.769	-23.799	C.3	15	MET15	-0.024	
228	   C	38.430	10.897	-23.711	C.2	15	MET15	0.597	
229	   O	38.919	11.422	-24.723	O.2	15	MET15	-0.568	
230	  CB	35.995	10.274	-23.490	C.3	15	MET15	0.034	
231	  CG	34.862	9.244	-23.682	C.3	15	MET15	0.002	
232	  SD	33.264	10.065	-23.568	S.3	15	MET15	-0.274	
233	  CE	32.223	8.606	-23.432	C.3	15	MET15	-0.054	
234	   H	37.126	8.374	-22.184	 H	15	MET15	0.272	
235	  HA	37.468	9.383	-24.835	 H	15	MET15	0.088	
236	 2HB	35.768	11.147	-24.132	 H	15	MET15	0.024	
237	 3HB	35.948	10.665	-22.454	 H	15	MET15	0.024	
238	 2HG	34.927	8.460	-22.905	 H	15	MET15	0.044	
239	 3HG	34.939	8.731	-24.658	 H	15	MET15	0.044	
240	 1HE	32.387	7.922	-24.284	 H	15	MET15	0.068	
241	 2HE	32.448	8.059	-22.499	 H	15	MET15	0.068	
242	 3HE	31.157	8.891	-23.415	 H	15	MET15	0.068	
243	   N	38.787	11.328	-22.548	N.am	16	ARG16	-0.348	
244	  CA	39.753	12.420	-22.464	C.3	16	ARG16	-0.264	
245	   C	41.034	12.063	-23.180	C.2	16	ARG16	0.734	
246	   O	41.178	10.990	-23.762	O.2	16	ARG16	-0.589	
247	  CB	40.013	12.745	-20.966	C.3	16	ARG16	-0.001	
248	  CG	40.801	14.056	-20.693	C.3	16	ARG16	0.039	
249	  CD	41.044	14.282	-19.191	C.3	16	ARG16	0.049	
250	  NE	41.785	15.563	-18.990	N.pl3	16	ARG16	-0.530	
251	  CZ	42.162	16.056	-17.814	C.cat	16	ARG16	0.808	
252	 NH1	41.931	15.464	-16.676	N.pl3	16	ARG16	-0.863	
253	 NH2	42.795	17.186	-17.795	N.pl3	16	ARG16	-0.863	
254	   H	38.403	10.917	-21.709	 H	16	ARG16	0.275	
255	  HA	39.319	13.301	-22.974	 H	16	ARG16	0.156	
256	 2HB	40.534	11.883	-20.500	 H	16	ARG16	0.033	
257	 3HB	39.042	12.798	-20.432	 H	16	ARG16	0.033	
258	 2HG	40.247	14.912	-21.130	 H	16	ARG16	0.029	
259	 3HG	41.776	14.031	-21.221	 H	16	ARG16	0.029	
260	 2HD	41.618	13.423	-18.778	 H	16	ARG16	0.069	
261	 3HD	40.071	14.298	-18.656	 H	16	ARG16	0.069	
262	  HE	42.047	16.151	-19.787	 H	16	ARG16	0.346	
263	1HH1	41.430	14.577	-16.761	 H	16	ARG16	0.448	
264	2HH1	42.253	15.909	-15.815	 H	16	ARG16	0.448	
265	1HH2	42.968	17.635	-18.697	 H	16	ARG16	0.448	
266	2HH2	43.075	17.549	-16.883	 H	16	ARG16	0.448	
@<TRIPOS>BOND
1 1 2 1
2 1 8 1
3 2 3 1
4 2 5 1
5 2 9 1
6 3 4 2
7 3 17 1
8 5 6 1
9 5 7 1
10 5 10 1
11 6 11 1
12 6 12 1
13 6 13 1
14 7 14 1
15 7 15 1
16 7 16 1
17 17 18 1
18 17 25 1
19 18 19 1
20 18 21 1
21 18 26 1
22 19 20 2
23 19 31 1
24 21 22 1
25 22 23 1
26 22 24 2
27 21 27 1
28 21 28 1
29 23 29 1
30 23 30 1
31 31 32 1
32 31 37 1
33 32 33 1
34 32 35 1
35 32 38 1
36 33 34 2
37 33 45 1
38 35 36 1
39 36 37 1
40 35 39 1
41 35 40 1
42 36 41 1
43 36 42 1
44 37 43 1
45 37 44 1
46 45 46 1
47 45 54 1
48 46 47 1
49 46 49 1
50 46 55 1
51 47 48 2
52 47 60 1
53 49 50 1
54 50 51 1
55 51 52 2
56 51 53 1
57 49 56 1
58 49 57 1
59 50 58 1
60 50 59 1
61 60 61 1
62 60 66 1
63 61 62 1
64 61 64 1
65 61 67 1
66 62 63 2
67 62 71 1
68 64 65 1
69 64 68 1
70 64 69 1
71 65 70 1
72 71 72 1
73 71 79 1
74 72 73 1
75 72 75 1
76 72 80 1
77 73 74 2
78 73 90 1
79 75 76 1
80 75 77 1
81 76 78 1
82 75 81 1
83 76 82 1
84 76 83 1
85 77 84 1
86 77 85 1
87 77 86 1
88 78 87 1
89 78 88 1
90 78 89 1
91 90 91 1
92 90 98 1
93 91 92 1
94 91 94 1
95 91 99 1
96 92 93 2
97 92 109 1
98 94 95 1
99 95 96 1
100 95 97 1
101 94 100 1
102 94 101 1
103 95 102 1
104 96 103 1
105 96 104 1
106 96 105 1
107 97 106 1
108 97 107 1
109 97 108 1
110 109 110 1
111 109 117 1
112 110 111 1
113 110 113 1
114 110 118 1
115 111 112 2
116 111 121 1
117 113 114 1
118 114 115 2
119 114 116 1
120 113 119 1
121 113 120 1
122 121 122 1
123 121 130 1
124 122 123 1
125 122 125 1
126 122 131 1
127 123 124 2
128 123 136 1
129 125 126 1
130 126 127 1
131 127 128 2
132 127 129 1
133 125 132 1
134 125 133 1
135 126 134 1
136 126 135 1
137 136 137 1
138 136 146 1
139 137 138 1
140 137 140 1
141 137 147 1
142 138 139 2
143 138 153 1
144 140 141 1
145 141 142 2
146 142 145 1
147 141 143 1
148 143 144 2
149 144 145 1
150 140 148 1
151 140 149 1
152 142 150 1
153 144 151 1
154 145 152 1
155 153 154 1
156 153 160 1
157 154 155 1
158 154 157 1
159 154 161 1
160 155 156 2
161 155 169 1
162 157 158 1
163 157 159 1
164 157 162 1
165 158 163 1
166 158 164 1
167 158 165 1
168 159 166 1
169 159 167 1
170 159 168 1
171 169 170 1
172 169 178 1
173 170 171 1
174 170 173 1
175 170 179 1
176 171 172 2
177 171 186 1
178 173 174 1
179 174 175 1
180 175 176 1
181 175 177 2
182 173 180 1
183 173 181 1
184 174 182 1
185 174 183 1
186 176 184 1
187 176 185 1
188 186 187 1
189 186 197 1
190 187 188 1
191 187 190 1
192 187 198 1
193 188 189 2
194 188 210 1
195 190 191 1
196 191 192 1
197 192 193 1
198 193 194 1
199 194 195 2
200 194 196 1
201 190 199 1
202 190 200 1
203 191 201 1
204 191 202 1
205 192 203 1
206 192 204 1
207 193 205 1
208 195 206 1
209 195 207 1
210 196 208 1
211 196 209 1
212 210 211 1
213 210 217 1
214 211 212 1
215 211 214 1
216 211 218 1
217 212 213 2
218 212 226 1
219 214 215 1
220 214 216 1
221 214 219 1
222 215 220 1
223 215 221 1
224 215 222 1
225 216 223 1
226 216 224 1
227 216 225 1
228 226 227 1
229 226 234 1
230 227 228 1
231 227 230 1
232 227 235 1
233 228 229 2
234 228 243 1
235 230 231 1
236 231 232 1
237 232 233 1
238 230 236 1
239 230 237 1
240 231 238 1
241 231 239 1
242 233 240 1
243 233 241 1
244 233 242 1
245 243 244 1
246 243 254 1
247 244 245 1
248 244 247 1
249 244 255 1
250 245 246 2
251 247 248 1
252 248 249 1
253 249 250 1
254 250 251 1
255 251 252 2
256 251 253 1
257 247 256 1
258 247 257 1
259 248 258 1
260 248 259 1
261 249 260 1
262 249 261 1
263 250 262 1
264 252 263 1
265 252 264 1
266 253 265 1
267 253 266 1
@<TRIPOS>SUBSTRUCTURE
1	VAL1	1	RESIDUE	1 ****	VAL
2	ASN2	17	RESIDUE	1 ****	ASN
3	PRO3	31	RESIDUE	1 ****	PRO
4	GLU4	45	RESIDUE	1 ****	GLU
5	SER5	60	RESIDUE	1 ****	SER
6	ILE6	71	RESIDUE	1 ****	ILE
7	LEU7	90	RESIDUE	1 ****	LEU
8	ASP8	109	RESIDUE	1 ****	ASP
9	GLU9	121	RESIDUE	1 ****	GLU
10	HIS10	136	RESIDUE	1 ****	HIS
11	VAL11	153	RESIDUE	1 ****	VAL
12	GLN12	169	RESIDUE	1 ****	GLN
13	ARG13	186	RESIDUE	1 ****	ARG
14	VAL14	210	RESIDUE	1 ****	VAL
15	MET15	226	RESIDUE	1 ****	MET
16	ARG16	243	RESIDUE	1 ****	ARG
