REMARK WARNING: 32 MAX_TORS EXCEEDED!!!
REMARK  68 active torsions:
REMARK  status: ('A' for Active; 'I' for Inactive)
REMARK    1  A    between atoms: N_1  and  CA_2 
REMARK    2  A    between atoms: CA_2  and  C_3 
REMARK    3  A    between atoms: CA_2  and  CB_5 
REMARK       I    between atoms: C_3  and  N_11 
REMARK    4  A    between atoms: CB_5  and  CG_6 
REMARK    5  A    between atoms: CG_6  and  CD_7 
REMARK    6  A    between atoms: N_11  and  CA_12 
REMARK    7  A    between atoms: CA_12  and  C_13 
REMARK    8  A    between atoms: CA_12  and  CB_15 
REMARK       I    between atoms: C_13  and  N_22 
REMARK    9  A    between atoms: CB_15  and  CG_16 
REMARK       I    between atoms: CG_16  and  ND2_17 
REMARK   10  A    between atoms: CA_23  and  C_24 
REMARK       I    between atoms: C_24  and  N_29 
REMARK   11  A    between atoms: N_29  and  CA_30 
REMARK   12  A    between atoms: CA_30  and  C_31 
REMARK   13  A    between atoms: CA_30  and  CB_33 
REMARK       I    between atoms: C_31  and  N_39 
REMARK   14  A    between atoms: CB_33  and  CG_34 
REMARK   15  A    between atoms: CG_34  and  CD_35 
REMARK   16  A    between atoms: N_39  and  CA_40 
REMARK   17  A    between atoms: CA_40  and  C_41 
REMARK   18  A    between atoms: CA_40  and  CB_43 
REMARK       I    between atoms: C_41  and  N_47 
REMARK   19  A    between atoms: CB_43  and  OG_44 
REMARK   20  A    between atoms: N_47  and  CA_48 
REMARK   21  A    between atoms: CA_48  and  C_49 
REMARK   22  A    between atoms: CA_48  and  CB_51 
REMARK       I    between atoms: C_49  and  N_56 
REMARK   23  A    between atoms: CB_51  and  CG1_52 
REMARK   24  A    between atoms: N_56  and  CA_57 
REMARK   25  A    between atoms: CA_57  and  C_58 
REMARK   26  A    between atoms: CA_57  and  CB_60 
REMARK       I    between atoms: C_58  and  N_65 
REMARK   27  A    between atoms: CB_60  and  CG_61 
REMARK   28  A    between atoms: N_65  and  CA_66 
REMARK   29  A    between atoms: CA_66  and  C_67 
REMARK   30  A    between atoms: CA_66  and  CB_69 
REMARK       I    between atoms: C_67  and  N_74 
REMARK   31  A    between atoms: CB_69  and  CG_70 
REMARK   32  A    between atoms: N_74  and  CA_75 
REMARK   33  A    between atoms: CA_75  and  C_76 
REMARK   34  A    between atoms: CA_75  and  CB_78 
REMARK       I    between atoms: C_76  and  N_84 
REMARK   35  A    between atoms: CB_78  and  CG_79 
REMARK   36  A    between atoms: CG_79  and  CD_80 
REMARK   37  A    between atoms: N_84  and  CA_85 
REMARK   38  A    between atoms: CA_85  and  C_86 
REMARK   39  A    between atoms: CA_85  and  CB_88 
REMARK       I    between atoms: C_86  and  N_96 
REMARK   40  A    between atoms: CB_88  and  CG_89 
REMARK   41  A    between atoms: N_96  and  CA_97 
REMARK   42  A    between atoms: CA_97  and  C_98 
REMARK   43  A    between atoms: CA_97  and  CB_100 
REMARK       I    between atoms: C_98  and  N_104 
REMARK   44  A    between atoms: N_104  and  CA_105 
REMARK   45  A    between atoms: CA_105  and  C_106 
REMARK   46  A    between atoms: CA_105  and  CB_108 
REMARK       I    between atoms: C_106  and  N_116 
REMARK   47  A    between atoms: CB_108  and  CG_109 
REMARK   48  A    between atoms: CG_109  and  CD_110 
REMARK       I    between atoms: CD_110  and  NE2_111 
REMARK   49  A    between atoms: N_116  and  CA_117 
REMARK   50  A    between atoms: CA_117  and  C_118 
REMARK   51  A    between atoms: CA_117  and  CB_120 
REMARK       I    between atoms: C_118  and  N_133 
REMARK   52  A    between atoms: CB_120  and  CG_121 
REMARK   53  A    between atoms: CG_121  and  CD_122 
REMARK   54  A    between atoms: CD_122  and  NE_123 
REMARK       I    between atoms: NE_123  and  CZ_124 
REMARK       I    between atoms: CZ_124  and  NH1_125 
REMARK       I    between atoms: CZ_124  and  NH2_126 
REMARK   55  A    between atoms: N_133  and  CA_134 
REMARK   56  A    between atoms: CA_134  and  C_135 
REMARK   57  A    between atoms: CA_134  and  CB_137 
REMARK       I    between atoms: C_135  and  N_141 
REMARK   58  A    between atoms: N_141  and  CA_142 
REMARK   59  A    between atoms: CA_142  and  C_143 
REMARK   60  A    between atoms: CA_142  and  CB_145 
REMARK       I    between atoms: C_143  and  N_150 
REMARK   61  A    between atoms: CB_145  and  CG_146 
REMARK   62  A    between atoms: CG_146  and  SD_147 
REMARK   63  A    between atoms: N_150  and  CA_151 
REMARK   64  A    between atoms: CA_151  and  C_152 
REMARK   65  A    between atoms: CA_151  and  CB_154 
REMARK   66  A    between atoms: CB_154  and  CG_155 
REMARK   67  A    between atoms: CG_155  and  CD_156 
REMARK   68  A    between atoms: CD_156  and  NE_157 
REMARK       I    between atoms: NE_157  and  CZ_158 
REMARK       I    between atoms: CZ_158  and  NH1_159 
ROOT
ATOM      1  C   GLU d   9    2202.554 674.917-2283.301  0.00  0.00     0.241 C 
ATOM      2  O   GLU d   9    2203.218 675.671-2284.027  0.00  0.00    -0.271 OA
ATOM      3  N   HIS d  10    2202.650 673.642-2283.470  0.00  0.00    -0.346 N 
ATOM      4  H   HIS d  10    2202.119 673.007-2282.891  0.00  0.00     0.163 HD
ENDROOT
BRANCH   1   5
ATOM      5  CA  GLU d   9    2201.636 675.446-2282.225  0.00  0.00     0.177 C 
BRANCH   5   6
ATOM      6  N   GLU d   9    2200.333 674.789-2282.280  0.00  0.00    -0.346 N 
ATOM      7  C   ASP d   8    2199.653 674.838-2283.375  0.00  0.00     0.241 C 
ATOM      8  O   ASP d   8    2200.126 675.442-2284.350  0.00  0.00    -0.271 OA
ATOM      9  H   GLU d   9    2199.970 674.303-2281.472  0.00  0.00     0.163 HD
BRANCH   7  10
ATOM     10  CA  ASP d   8    2198.306 674.159-2283.432  0.00  0.00     0.186 C 
BRANCH  10  11
ATOM     11  N   ASP d   8    2198.376 672.810-2282.878  0.00  0.00    -0.346 N 
ATOM     12  C   LEU d   7    2199.213 671.969-2283.384  0.00  0.00     0.241 C 
ATOM     13  O   LEU d   7    2199.934 672.330-2284.326  0.00  0.00    -0.271 OA
ATOM     14  H   ASP d   8    2197.778 672.539-2282.110  0.00  0.00     0.163 HD
BRANCH  12  15
ATOM     15  CA  LEU d   7    2199.285 670.573-2282.811  0.00  0.00     0.177 C 
BRANCH  15  16
ATOM     16  N   LEU d   7    2199.340 670.609-2281.352  0.00  0.00    -0.346 N 
ATOM     17  C   ILE d   6    2200.286 671.273-2280.779  0.00  0.00     0.241 C 
ATOM     18  O   ILE d   6    2201.121 671.860-2281.482  0.00  0.00    -0.271 OA
ATOM     19  H   LEU d   7    2198.648 670.123-2280.801  0.00  0.00     0.163 HD
BRANCH  17  20
ATOM     20  CA  ILE d   6    2200.343 671.310-2279.271  0.00  0.00     0.180 C 
BRANCH  20  21
ATOM     21  N   ILE d   6    2199.030 671.606-2278.705  0.00  0.00    -0.346 N 
ATOM     22  C   SER d   5    2198.426 672.689-2279.059  0.00  0.00     0.243 C 
ATOM     23  O   SER d   5    2198.973 673.442-2279.864  0.00  0.00    -0.271 OA
ATOM     24  H   ILE d   6    2198.601 670.971-2278.046  0.00  0.00     0.163 HD
BRANCH  22  25
ATOM     25  CA  SER d   5    2197.067 672.995-2278.474  0.00  0.00     0.200 C 
BRANCH  25  26
ATOM     26  N   SER d   5    2196.197 671.824-2278.533  0.00  0.00    -0.344 N 
ATOM     27  C   GLU d   4    2195.970 671.271-2279.676  0.00  0.00     0.241 C 
ATOM     28  O   GLU d   4    2196.497 671.751-2280.690  0.00  0.00    -0.271 OA
ATOM     29  H   SER d   5    2195.779 671.452-2277.691  0.00  0.00     0.163 HD
BRANCH  27  30
ATOM     30  CA  GLU d   4    2195.071 670.061-2279.738  0.00  0.00     0.177 C 
BRANCH  30  31
ATOM     31  N   GLU d   4    2195.430 669.090-2278.708  0.00  0.00    -0.346 N 
ATOM     32  C   PRO d   3    2196.635 668.629-2278.675  0.00  0.00     0.241 C 
ATOM     33  O   PRO d   3    2197.458 669.012-2279.506  0.00  0.00    -0.271 OA
ATOM     34  H   GLU d   4    2194.745 668.783-2278.031  0.00  0.00     0.163 HD
BRANCH  32  35
ATOM     35  CA  PRO d   3    2197.032 667.606-2277.598  0.00  0.00     0.179 C 
ATOM     36  N   PRO d   3    2196.580 668.015-2276.277  0.00  0.00    -0.337 N 
ATOM     37  C   ASN d   2    2197.102 669.010-2275.642  0.00  0.00     0.243 C 
ATOM     38  CD  PRO d   3    2195.502 667.222-2275.728  0.00  0.00     0.127 C 
ATOM     39  O   ASN d   2    2198.017 669.640-2276.170  0.00  0.00    -0.271 OA
ATOM     40  CG  PRO d   3    2195.044 666.404-2276.938  0.00  0.00     0.022 C 
ATOM     41  CB  PRO d   3    2196.328 666.251-2277.768  0.00  0.00     0.037 C 
BRANCH  37  42
ATOM     42  CA  ASN d   2    2196.570 669.366-2274.274  0.00  0.00     0.185 C 
BRANCH  42  43
ATOM     43  N   ASN d   2    2195.111 669.404-2274.274  0.00  0.00    -0.346 N 
ATOM     44  C   GLU d   1    2194.506 670.190-2275.099  0.00  0.00     0.242 C 
ATOM     45  O   GLU d   1    2195.182 670.889-2275.868  0.00  0.00    -0.271 OA
ATOM     46  H   ASN d   2    2194.583 668.825-2273.637  0.00  0.00     0.163 HD
BRANCH  44  47
ATOM     47  CA  GLU d   1    2192.997 670.230-2275.099  0.00  0.00     0.191 C 
BRANCH  47  48
ATOM     48  N   GLU d   1    2192.438 668.881-2275.099  0.00  0.00    -0.326 NA
ATOM     49  H   GLU d   1    2193.065 668.002-2275.099  0.00  0.00     0.180 HD
ENDBRANCH  47  48
BRANCH  47  50
ATOM     50  CB  GLU d   1    2192.474 671.015-2273.862  0.00  0.00     0.047 C 
BRANCH  50  51
ATOM     51  CG  GLU d   1    2192.949 672.500-2273.751  0.00  0.00     0.116 C 
BRANCH  51  52
ATOM     52  CD  GLU d   1    2192.525 673.304-2272.536  0.00  0.00     0.172 C 
ATOM     53  OE1 GLU d   1    2191.797 672.802-2271.658  0.00  0.00    -0.648 OA
ATOM     54  OE2 GLU d   1    2192.955 674.474-2272.464  0.00  0.00    -0.648 OA
ENDBRANCH  51  52
ENDBRANCH  50  51
ENDBRANCH  47  50
ENDBRANCH  44  47
ENDBRANCH  42  43
BRANCH  42  55
ATOM     55  CB  ASN d   2    2197.062 668.342-2273.209  0.00  0.00     0.137 C 
BRANCH  55  56
ATOM     56  CG  ASN d   2    2196.598 668.566-2271.766  0.00  0.00     0.217 C 
ATOM     57  ND2 ASN d   2    2197.192 669.481-2271.048  0.00  0.00    -0.370 N 
ATOM     58 21HD ASN d   2    2196.711 669.655-2270.161  0.00  0.00     0.159 HD
ATOM     59 22HD ASN d   2    2197.894 670.053-2271.517  0.00  0.00     0.159 HD
ATOM     60  OD1 ASN d   2    2195.677 667.933-2271.272  0.00  0.00    -0.274 OA
ENDBRANCH  55  56
ENDBRANCH  42  55
ENDBRANCH  37  42
ENDBRANCH  32  35
ENDBRANCH  30  31
BRANCH  30  61
ATOM     61  CB  GLU d   4    2193.582 670.480-2279.568  0.00  0.00     0.045 C 
BRANCH  61  62
ATOM     62  CG  GLU d   4    2193.035 671.483-2280.634  0.00  0.00     0.116 C 
BRANCH  62  63
ATOM     63  CD  GLU d   4    2191.608 671.980-2280.490  0.00  0.00     0.172 C 
ATOM     64  OE1 GLU d   4    2190.881 671.582-2279.560  0.00  0.00    -0.648 OA
ATOM     65  OE2 GLU d   4    2191.219 672.810-2281.339  0.00  0.00    -0.648 OA
ENDBRANCH  62  63
ENDBRANCH  61  62
ENDBRANCH  30  61
ENDBRANCH  27  30
ENDBRANCH  25  26
BRANCH  25  66
ATOM     66  CB  SER d   5    2197.178 673.527-2277.023  0.00  0.00     0.199 C 
BRANCH  66  67
ATOM     67  OG  SER d   5    2197.909 672.648-2276.162  0.00  0.00    -0.398 OA
ATOM     68  HG  SER d   5    2197.420 671.823-2276.112  0.00  0.00     0.209 HD
ENDBRANCH  66  67
ENDBRANCH  25  66
ENDBRANCH  22  25
ENDBRANCH  20  21
BRANCH  20  69
ATOM     69  CB  ILE d   6    2200.942 669.974-2278.670  0.00  0.00     0.013 C 
ATOM     70  CG2 ILE d   6    2202.383 669.672-2279.186  0.00  0.00     0.012 C 
BRANCH  69  71
ATOM     71  CG1 ILE d   6    2200.961 669.911-2277.110  0.00  0.00     0.002 C 
ATOM     72  CD1 ILE d   6    2201.230 668.522-2276.494  0.00  0.00     0.005 C 
ENDBRANCH  69  71
ENDBRANCH  20  69
ENDBRANCH  17  20
ENDBRANCH  15  16
BRANCH  15  73
ATOM     73  CB  LEU d   7    2198.082 669.713-2283.291  0.00  0.00     0.038 C 
BRANCH  73  74
ATOM     74  CG  LEU d   7    2198.008 668.234-2282.824  0.00  0.00    -0.020 C 
ATOM     75  CD1 LEU d   7    2196.818 667.529-2283.490  0.00  0.00     0.009 C 
ATOM     76  CD2 LEU d   7    2199.302 667.454-2283.116  0.00  0.00     0.009 C 
ENDBRANCH  73  74
ENDBRANCH  15  73
ENDBRANCH  12  15
ENDBRANCH  10  11
BRANCH  10  77
ATOM     77  CB  ASP d   8    2197.229 674.999-2282.691  0.00  0.00     0.147 C 
BRANCH  77  78
ATOM     78  CG  ASP d   8    2197.010 676.420-2283.232  0.00  0.00     0.175 C 
ATOM     79  OD1 ASP d   8    2197.075 676.618-2284.463  0.00  0.00    -0.648 OA
ATOM     80  OD2 ASP d   8    2196.819 677.346-2282.417  0.00  0.00    -0.648 OA
ENDBRANCH  77  78
ENDBRANCH  10  77
ENDBRANCH   7  10
ENDBRANCH   5   6
BRANCH   5  81
ATOM     81  CB  GLU d   9    2202.270 675.238-2280.820  0.00  0.00     0.045 C 
BRANCH  81  82
ATOM     82  CG  GLU d   9    2203.653 675.930-2280.591  0.00  0.00     0.116 C 
BRANCH  82  83
ATOM     83  CD  GLU d   9    2204.355 675.717-2279.263  0.00  0.00     0.172 C 
ATOM     84  OE1 GLU d   9    2203.833 675.027-2278.366  0.00  0.00    -0.648 OA
ATOM     85  OE2 GLU d   9    2205.474 676.254-2279.132  0.00  0.00    -0.648 OA
ENDBRANCH  82  83
ENDBRANCH  81  82
ENDBRANCH   5  81
ENDBRANCH   1   5
BRANCH   3  86
ATOM     86  CA  HIS d  10    2203.537 673.129-2284.510  0.00  0.00     0.182 C 
BRANCH  86  87
ATOM     87  C   HIS d  10    2203.170 673.693-2285.862  0.00  0.00     0.241 C 
ATOM     88  O   HIS d  10    2204.023 674.157-2286.634  0.00  0.00    -0.271 OA
ATOM     89  N   VAL d  11    2201.932 673.693-2286.224  0.00  0.00    -0.346 N 
ATOM     90  H   VAL d  11    2201.219 673.321-2285.614  0.00  0.00     0.163 HD
BRANCH  89  91
ATOM     91  CA  VAL d  11    2201.577 674.238-2287.531  0.00  0.00     0.180 C 
BRANCH  91  92
ATOM     92  C   VAL d  11    2202.042 675.669-2287.665  0.00  0.00     0.241 C 
ATOM     93  O   VAL d  11    2202.644 676.073-2288.668  0.00  0.00    -0.271 OA
ATOM     94  N   GLN d  12    2201.806 676.495-2286.703  0.00  0.00    -0.346 N 
ATOM     95  H   GLN d  12    2201.317 676.190-2285.873  0.00  0.00     0.163 HD
BRANCH  94  96
ATOM     96  CA  GLN d  12    2202.255 677.878-2286.831  0.00  0.00     0.177 C 
BRANCH  96  97
ATOM     97  C   GLN d  12    2203.745 677.944-2287.069  0.00  0.00     0.241 C 
ATOM     98  O   GLN d  12    2204.232 678.652-2287.948  0.00  0.00    -0.271 OA
ATOM     99  N   ARG d  13    2204.530 677.237-2286.328  0.00  0.00    -0.346 N 
ATOM    100  H   ARG d  13    2204.153 676.648-2285.599  0.00  0.00     0.163 HD
BRANCH  99 101
ATOM    101  CA  ARG d  13    2205.970 677.302-2286.559  0.00  0.00     0.176 C 
BRANCH 101 102
ATOM    102  C   ARG d  13    2206.306 676.930-2287.984  0.00  0.00     0.241 C 
ATOM    103  O   ARG d  13    2207.074 677.601-2288.668  0.00  0.00    -0.271 OA
ATOM    104  N   VAL d  14    2205.769 675.875-2288.497  0.00  0.00    -0.346 N 
ATOM    105  H   VAL d  14    2205.134 675.307-2287.955  0.00  0.00     0.163 HD
BRANCH 104 106
ATOM    106  CA  VAL d  14    2206.094 675.515-2289.875  0.00  0.00     0.180 C 
BRANCH 106 107
ATOM    107  C   VAL d  14    2205.764 676.645-2290.821  0.00  0.00     0.241 C 
ATOM    108  O   VAL d  14    2206.557 677.026-2291.690  0.00  0.00    -0.271 OA
ATOM    109  N   MET d  15    2204.619 677.231-2290.719  0.00  0.00    -0.346 N 
ATOM    110  H   MET d  15    2203.954 676.938-2290.017  0.00  0.00     0.163 HD
BRANCH 109 111
ATOM    111  CA  MET d  15    2204.299 678.323-2291.633  0.00  0.00     0.177 C 
BRANCH 111 112
ATOM    112  C   MET d  15    2205.329 679.423-2291.546  0.00  0.00     0.241 C 
ATOM    113  O   MET d  15    2205.832 679.934-2292.559  0.00  0.00    -0.271 OA
ATOM    114  N   ARG d  16    2205.698 679.845-2290.384  0.00  0.00    -0.347 N 
ATOM    115  H   ARG d  16    2205.303 679.445-2289.544  0.00  0.00     0.163 HD
BRANCH 114 116
ATOM    116  CA  ARG d  16    2206.695 680.909-2290.301  0.00  0.00     0.162 C 
BRANCH 116 117
ATOM    117  C   ARG d  16    2207.965 680.516-2291.017  0.00  0.00     0.219 C 
ATOM    118  O   ARG d  16    2208.079 679.439-2291.598  0.00  0.00    -0.287 OA
ENDBRANCH 116 117
BRANCH 116 119
ATOM    119  CB  ARG d  16    2206.964 681.227-2288.802  0.00  0.00     0.035 C 
BRANCH 119 120
ATOM    120  CG  ARG d  16    2207.789 682.516-2288.530  0.00  0.00     0.023 C 
BRANCH 120 121
ATOM    121  CD  ARG d  16    2208.039 682.736-2287.029  0.00  0.00     0.138 C 
BRANCH 121 122
ATOM    122  NE  ARG d  16    2208.815 683.995-2286.828  0.00  0.00    -0.227 N 
ATOM    123  CZ  ARG d  16    2209.207 684.478-2285.653  0.00  0.00     0.665 C 
ATOM    124  NH1 ARG d  16    2208.959 683.894-2284.514  0.00  0.00    -0.235 N 
ATOM    125  NH2 ARG d  16    2209.871 685.590-2285.635  0.00  0.00    -0.235 N 
ATOM    126 11HH ARG d  16    2208.434 683.021-2284.598  0.00  0.00     0.174 HD
ATOM    127 12HH ARG d  16    2209.294 684.330-2283.653  0.00  0.00     0.174 HD
ATOM    128 21HH ARG d  16    2210.056 686.033-2286.537  0.00  0.00     0.174 HD
ATOM    129 22HH ARG d  16    2210.161 685.946-2284.723  0.00  0.00     0.174 HD
ATOM    130  HE  ARG d  16    2209.094 684.576-2287.626  0.00  0.00     0.177 HD
ENDBRANCH 121 122
ENDBRANCH 120 121
ENDBRANCH 119 120
ENDBRANCH 116 119
ENDBRANCH 114 116
ENDBRANCH 111 112
BRANCH 111 131
ATOM    131  CB  MET d  15    2202.877 678.869-2291.324  0.00  0.00     0.045 C 
BRANCH 131 132
ATOM    132  CG  MET d  15    2201.715 677.871-2291.515  0.00  0.00     0.076 C 
BRANCH 132 133
ATOM    133  SD  MET d  15    2200.141 678.738-2291.401  0.00  0.00    -0.173 SA
ATOM    134  CE  MET d  15    2199.060 677.308-2291.263  0.00  0.00     0.089 C 
ENDBRANCH 132 133
ENDBRANCH 131 132
ENDBRANCH 111 131
ENDBRANCH 109 111
ENDBRANCH 106 107
BRANCH 106 135
ATOM    135  CB  VAL d  14    2205.321 674.198-2290.281  0.00  0.00     0.009 C 
ATOM    136  CG1 VAL d  14    2205.409 673.779-2291.774  0.00  0.00     0.012 C 
ATOM    137  CG2 VAL d  14    2205.752 672.946-2289.480  0.00  0.00     0.012 C 
ENDBRANCH 106 135
ENDBRANCH 104 106
ENDBRANCH 101 102
BRANCH 101 138
ATOM    138  CB  ARG d  13    2206.683 676.364-2285.544  0.00  0.00     0.036 C 
BRANCH 138 139
ATOM    139  CG  ARG d  13    2208.228 676.517-2285.464  0.00  0.00     0.023 C 
BRANCH 139 140
ATOM    140  CD  ARG d  13    2208.855 675.530-2284.466  0.00  0.00     0.138 C 
BRANCH 140 141
ATOM    141  NE  ARG d  13    2210.332 675.737-2284.416  0.00  0.00    -0.227 N 
ATOM    142  CZ  ARG d  13    2211.181 675.045-2283.660  0.00  0.00     0.665 C 
ATOM    143  NH1 ARG d  13    2210.816 674.082-2282.862  0.00  0.00    -0.235 N 
ATOM    144  NH2 ARG d  13    2212.440 675.344-2283.718  0.00  0.00    -0.235 N 
ATOM    145 11HH ARG d  13    2209.810 673.896-2282.865  0.00  0.00     0.174 HD
ATOM    146 12HH ARG d  13    2211.529 673.599-2282.313  0.00  0.00     0.174 HD
ATOM    147 21HH ARG d  13    2212.708 676.101-2284.350  0.00  0.00     0.174 HD
ATOM    148 22HH ARG d  13    2213.076 674.803-2283.129  0.00  0.00     0.174 HD
ATOM    149  HE  ARG d  13    2210.784 676.458-2284.987  0.00  0.00     0.177 HD
ENDBRANCH 140 141
ENDBRANCH 139 140
ENDBRANCH 138 139
ENDBRANCH 101 138
ENDBRANCH  99 101
ENDBRANCH  96  97
BRANCH  96 150
ATOM    150  CB  GLN d  12    2201.865 678.646-2285.548  0.00  0.00     0.044 C 
BRANCH 150 151
ATOM    151  CG  GLN d  12    2202.226 680.168-2285.518  0.00  0.00     0.105 C 
BRANCH 151 152
ATOM    152  CD  GLN d  12    2201.925 680.982-2284.254  0.00  0.00     0.215 C 
ATOM    153  NE2 GLN d  12    2201.358 680.406-2283.224  0.00  0.00    -0.370 N 
ATOM    154 21HE GLN d  12    2201.251 681.001-2282.401  0.00  0.00     0.159 HD
ATOM    155 22HE GLN d  12    2201.193 679.403-2283.327  0.00  0.00     0.159 HD
ATOM    156  OE1 GLN d  12    2202.227 682.163-2284.177  0.00  0.00    -0.274 OA
ENDBRANCH 151 152
ENDBRANCH 150 151
ENDBRANCH  96 150
ENDBRANCH  94  96
ENDBRANCH  91  92
BRANCH  91 157
ATOM    157  CB  VAL d  11    2200.016 674.132-2287.750  0.00  0.00     0.009 C 
ATOM    158  CG1 VAL d  11    2199.448 674.836-2289.013  0.00  0.00     0.012 C 
ATOM    159  CG2 VAL d  11    2199.491 672.679-2287.823  0.00  0.00     0.012 C 
ENDBRANCH  91 157
ENDBRANCH  89  91
ENDBRANCH  86  87
BRANCH  86 160
ATOM    160  CB  HIS d  10    2203.373 671.600-2284.505  0.00  0.00     0.095 C 
BRANCH 160 161
ATOM    161  CG  HIS d  10    2204.658 670.890-2284.197  0.00  0.00     0.053 A 
ATOM    162  CD2 HIS d  10    2205.039 670.555-2282.904  0.00  0.00     0.116 A 
ATOM    163  NE2 HIS d  10    2206.254 669.923-2282.971  0.00  0.00    -0.359 N 
ATOM    164  CE1 HIS d  10    2206.516 669.925-2284.306  0.00  0.00     0.207 A 
ATOM    165  2HE HIS d  10    2206.821 669.546-2282.198  0.00  0.00     0.166 HD
ATOM    166  ND1 HIS d  10    2205.609 670.483-2285.129  0.00  0.00    -0.247 NA
ENDBRANCH 160 161
ENDBRANCH  86 160
ENDBRANCH   3  86
TORSDOF 68
