@<TRIPOS>MOLECULE
10-9
269 270 16              
SMALL
USER_CHARGES
@<TRIPOS>ATOM
1	   N	1582.758	469.573	-1608.747	N.3	1	GLU1	-0.516	
2	  CA	1583.317	470.922	-1608.747	C.3	1	GLU1	0.040	
3	   C	1584.826	470.882	-1608.747	C.2	1	GLU1	0.537	
4	   O	1585.502	471.581	-1609.516	O.2	1	GLU1	-0.582	
5	  CB	1582.794	471.707	-1607.510	C.3	1	GLU1	0.056	
6	  CG	1583.269	473.192	-1607.399	C.3	1	GLU1	0.014	
7	  CD	1582.845	473.996	-1606.184	C.2	1	GLU1	0.805	
8	 OE1	1582.117	473.494	-1605.306	O.co2	1	GLU1	-0.819	
9	 OE2	1583.275	475.166	-1606.112	O.co2	1	GLU1	-0.819	
10	   H	1583.385	468.694	-1608.747	 H	1	GLU1	0.294	
11	  HA	1582.991	471.440	-1609.667	 H	1	GLU1	0.111	
12	 2HB	1583.083	471.176	-1606.580	 H	1	GLU1	-0.017	
13	 3HB	1581.687	471.697	-1607.497	 H	1	GLU1	-0.017	
14	 2HG	1582.959	473.777	-1608.280	 H	1	GLU1	-0.043	
15	 3HG	1584.369	473.259	-1607.370	 H	1	GLU1	-0.043	
16	   N	1585.431	470.096	-1607.922	N.am	2	ASN2	-0.416	
17	  CA	1586.890	470.058	-1607.922	C.3	2	ASN2	0.014	
18	   C	1587.422	469.702	-1609.291	C.2	2	ASN2	0.597	
19	   O	1588.336	470.332	-1609.819	O.2	2	ASN2	-0.568	
20	  CB	1587.382	469.035	-1606.857	C.3	2	ASN2	-0.204	
21	  CG	1586.919	469.258	-1605.414	C.2	2	ASN2	0.713	
22	 ND2	1587.514	470.173	-1604.696	N.pl3	2	ASN2	-0.919	
23	 OD1	1585.999	468.625	-1604.920	O.2	2	ASN2	-0.593	
24	   H	1584.903	469.517	-1607.285	 H	2	ASN2	0.272	
25	  HA	1587.268	471.068	-1607.676	 H	2	ASN2	0.105	
26	 2HB	1588.487	468.976	-1606.861	 H	2	ASN2	0.080	
27	 3HB	1587.053	468.016	-1607.143	 H	2	ASN2	0.080	
28	1HD2	1587.033	470.346	-1603.809	 H	2	ASN2	0.420	
29	2HD2	1588.215	470.745	-1605.165	 H	2	ASN2	0.420	
30	   N	1586.900	468.707	-1609.925	N.am	3	PRO3	-0.255	
31	  CA	1587.352	468.298	-1611.246	C.3	3	PRO3	-0.027	
32	   C	1586.953	469.321	-1612.323	C.2	3	PRO3	0.590	
33	   O	1587.777	469.704	-1613.155	O.2	3	PRO3	-0.575	
34	  CB	1586.648	466.943	-1611.415	C.3	3	PRO3	-0.007	
35	  CG	1585.364	467.095	-1610.585	C.3	3	PRO3	0.019	
36	  CD	1585.822	467.914	-1609.375	C.3	3	PRO3	0.019	
37	  HA	1588.438	468.178	-1611.260	 H	3	PRO3	0.064	
38	 2HB	1587.271	466.162	-1610.975	 H	3	PRO3	0.025	
39	 3HB	1586.449	466.694	-1612.461	 H	3	PRO3	0.025	
40	 2HG	1584.937	466.133	-1610.294	 H	3	PRO3	0.021	
41	 3HG	1584.627	467.666	-1611.152	 H	3	PRO3	0.021	
42	 2HD	1586.211	467.264	-1608.588	 H	3	PRO3	0.039	
43	 3HD	1585.026	468.550	-1608.982	 H	3	PRO3	0.039	
44	   N	1585.749	469.781	-1612.355	N.am	4	GLU4	-0.516	
45	  CA	1585.389	470.752	-1613.385	C.3	4	GLU4	0.040	
46	   C	1586.288	471.963	-1613.324	C.2	4	GLU4	0.537	
47	   O	1586.814	472.443	-1614.338	O.2	4	GLU4	-0.582	
48	  CB	1583.900	471.171	-1613.214	C.3	4	GLU4	0.056	
49	  CG	1583.352	472.174	-1614.280	C.3	4	GLU4	0.014	
50	  CD	1581.926	472.671	-1614.136	C.2	4	GLU4	0.805	
51	 OE1	1581.199	472.273	-1613.205	O.co2	4	GLU4	-0.819	
52	 OE2	1581.536	473.500	-1614.984	O.co2	4	GLU4	-0.819	
53	   H	1585.065	469.474	-1611.678	 H	4	GLU4	0.294	
54	  HA	1585.520	470.282	-1614.376	 H	4	GLU4	0.111	
55	 2HB	1583.748	471.611	-1612.207	 H	4	GLU4	-0.017	
56	 3HB	1583.253	470.273	-1613.220	 H	4	GLU4	-0.017	
57	 2HG	1583.434	471.760	-1615.297	 H	4	GLU4	-0.043	
58	 3HG	1583.940	473.107	-1614.291	 H	4	GLU4	-0.043	
59	   N	1586.515	472.516	-1612.181	N.am	5	SER5	-0.416	
60	  CA	1587.385	473.687	-1612.122	C.3	5	SER5	-0.025	
61	   C	1588.744	473.382	-1612.708	C.2	5	SER5	0.597	
62	   O	1589.291	474.136	-1613.513	O.2	5	SER5	-0.568	
63	  CB	1587.496	474.220	-1610.671	C.3	5	SER5	0.212	
64	  OG	1588.228	473.340	-1609.811	O.3	5	SER5	-0.655	
65	   H	1586.099	472.144	-1611.339	 H	5	SER5	0.272	
66	  HA	1586.935	474.478	-1612.751	 H	5	SER5	0.084	
67	 2HB	1586.497	474.413	-1610.238	 H	5	SER5	0.035	
68	 3HB	1588.002	475.205	-1610.674	 H	5	SER5	0.035	
69	  HG	1587.740	472.515	-1609.760	 H	5	SER5	0.428	
70	   N	1589.348	472.299	-1612.354	N.am	6	ILE6	-0.416	
71	  CA	1590.661	472.004	-1612.920	C.3	6	ILE6	-0.060	
72	   C	1590.604	471.967	-1614.428	C.2	6	ILE6	0.597	
73	   O	1591.439	472.555	-1615.132	O.2	6	ILE6	-0.568	
74	  CB	1591.261	470.668	-1612.321	C.3	6	ILE6	0.130	
75	 CG1	1591.281	470.606	-1610.760	C.3	6	ILE6	-0.043	
76	 CG2	1592.703	470.367	-1612.836	C.3	6	ILE6	-0.320	
77	 CD1	1591.551	469.217	-1610.145	C.3	6	ILE6	-0.066	
78	   H	1588.920	471.665	-1611.695	 H	6	ILE6	0.272	
79	  HA	1591.336	472.839	-1612.652	 H	6	ILE6	0.087	
80	  HB	1590.604	469.842	-1612.665	 H	6	ILE6	0.019	
81	2HG1	1590.299	470.925	-1610.364	 H	6	ILE6	0.024	
82	3HG1	1591.997	471.348	-1610.355	 H	6	ILE6	0.024	
83	1HG2	1592.761	470.273	-1613.934	 H	6	ILE6	0.088	
84	2HG2	1593.425	471.149	-1612.534	 H	6	ILE6	0.088	
85	3HG2	1593.093	469.404	-1612.457	 H	6	ILE6	0.088	
86	1HD1	1590.823	468.462	-1610.500	 H	6	ILE6	0.019	
87	2HD1	1592.562	468.838	-1610.381	 H	6	ILE6	0.019	
88	3HD1	1591.475	469.246	-1609.042	 H	6	ILE6	0.019	
89	   N	1589.658	471.303	-1615.002	N.am	7	LEU7	-0.416	
90	  CA	1589.603	471.268	-1616.460	C.3	7	LEU7	-0.052	
91	   C	1589.531	472.663	-1617.032	C.2	7	LEU7	0.597	
92	   O	1590.251	473.026	-1617.974	O.2	7	LEU7	-0.568	
93	  CB	1588.400	470.407	-1616.941	C.3	7	LEU7	-0.110	
94	  CG	1588.327	468.928	-1616.474	C.3	7	LEU7	0.353	
95	 CD1	1587.138	468.222	-1617.140	C.3	7	LEU7	-0.412	
96	 CD2	1589.621	468.149	-1616.766	C.3	7	LEU7	-0.412	
97	   H	1588.966	470.816	-1614.450	 H	7	LEU7	0.272	
98	  HA	1590.545	470.828	-1616.835	 H	7	LEU7	0.092	
99	 2HB	1588.377	470.424	-1618.048	 H	7	LEU7	0.046	
100	 3HB	1587.460	470.910	-1616.636	 H	7	LEU7	0.046	
101	  HG	1588.158	468.920	-1615.377	 H	7	LEU7	-0.036	
102	1HD1	1586.180	468.731	-1616.917	 H	7	LEU7	0.100	
103	2HD1	1587.237	468.182	-1618.241	 H	7	LEU7	0.100	
104	3HD1	1587.031	467.181	-1616.784	 H	7	LEU7	0.100	
105	1HD2	1589.896	468.179	-1617.836	 H	7	LEU7	0.100	
106	2HD2	1590.474	468.560	-1616.195	 H	7	LEU7	0.100	
107	3HD2	1589.540	467.086	-1616.470	 H	7	LEU7	0.100	
108	   N	1588.693	473.504	-1616.526	N.am	8	ASP8	-0.516	
109	  CA	1588.623	474.853	-1617.079	C.3	8	ASP8	0.038	
110	   C	1589.969	475.533	-1617.021	C.2	8	ASP8	0.537	
111	   O	1590.442	476.138	-1617.996	O.2	8	ASP8	-0.582	
112	  CB	1587.545	475.692	-1616.337	C.3	8	ASP8	-0.030	
113	  CG	1587.326	477.113	-1616.877	C.2	8	ASP8	0.799	
114	 OD1	1587.390	477.312	-1618.108	O.co2	8	ASP8	-0.801	
115	 OD2	1587.134	478.038	-1616.061	O.co2	8	ASP8	-0.801	
116	   H	1588.096	473.232	-1615.758	 H	8	ASP8	0.294	
117	  HA	1588.340	474.776	-1618.146	 H	8	ASP8	0.088	
118	 2HB	1587.802	475.775	-1615.265	 H	8	ASP8	-0.012	
119	 3HB	1586.566	475.187	-1616.370	 H	8	ASP8	-0.012	
120	   N	1590.649	475.483	-1615.926	N.am	9	GLU9	-0.516	
121	  CA	1591.952	476.141	-1615.871	C.3	9	GLU9	0.040	
122	   C	1592.870	475.614	-1616.947	C.2	9	GLU9	0.537	
123	   O	1593.534	476.368	-1617.672	O.2	9	GLU9	-0.582	
124	  CB	1592.586	475.933	-1614.466	C.3	9	GLU9	0.056	
125	  CG	1593.968	476.625	-1614.236	C.3	9	GLU9	0.014	
126	  CD	1594.670	476.411	-1612.908	C.2	9	GLU9	0.805	
127	 OE1	1594.149	475.720	-1612.012	O.co2	9	GLU9	-0.819	
128	 OE2	1595.789	476.949	-1612.776	O.co2	9	GLU9	-0.819	
129	   H	1590.286	474.996	-1615.119	 H	9	GLU9	0.294	
130	  HA	1591.810	477.222	-1616.046	 H	9	GLU9	0.111	
131	 2HB	1592.699	474.848	-1614.263	 H	9	GLU9	-0.017	
132	 3HB	1591.889	476.286	-1613.681	 H	9	GLU9	-0.017	
133	 2HG	1593.896	477.716	-1614.375	 H	9	GLU9	-0.043	
134	 3HG	1594.715	476.280	-1614.970	 H	9	GLU9	-0.043	
135	   N	1592.967	474.339	-1617.117	N.am	10	TYR10	-0.416	
136	  CA	1593.855	473.829	-1618.158	C.3	10	TYR10	-0.001	
137	   C	1593.486	474.395	-1619.508	C.2	10	TYR10	0.597	
138	   O	1594.333	474.860	-1620.276	O.2	10	TYR10	-0.568	
139	  CB	1593.770	472.277	-1618.250	C.3	10	TYR10	-0.015	
140	  CG	1594.189	471.490	-1617.002	C.2	10	TYR10	-0.001	
141	 CD1	1595.541	471.300	-1616.700	C.2	10	TYR10	-0.191	
142	 CD2	1593.212	470.965	-1616.151	C.2	10	TYR10	-0.191	
143	 CE1	1595.909	470.597	-1615.556	C.2	10	TYR10	-0.234	
144	 CE2	1593.581	470.262	-1615.009	C.2	10	TYR10	-0.234	
145	  CZ	1594.930	470.078	-1614.712	C.2	10	TYR10	0.323	
146	  OH	1595.296	469.391	-1613.590	O.3	10	TYR10	-0.558	
147	   H	1592.436	473.702	-1616.539	 H	10	TYR10	0.272	
148	  HA	1594.891	474.141	-1617.930	 H	10	TYR10	0.088	
149	 2HB	1594.393	471.919	-1619.094	 H	10	TYR10	0.030	
150	 3HB	1592.742	471.982	-1618.546	 H	10	TYR10	0.030	
151	 1HD	1596.308	471.704	-1617.347	 H	10	TYR10	0.170	
152	 2HD	1592.163	471.114	-1616.370	 H	10	TYR10	0.170	
153	 1HE	1596.952	470.454	-1615.318	 H	10	TYR10	0.166	
154	 2HE	1592.817	469.867	-1614.357	 H	10	TYR10	0.166	
155	  HH	1594.500	469.113	-1613.132	 H	10	TYR10	0.399	
156	   N	1592.248	474.394	-1619.870	N.am	11	VAL11	-0.416	
157	  CA	1591.892	474.942	-1621.176	C.3	11	VAL11	-0.087	
158	   C	1592.355	476.373	-1621.306	C.2	11	VAL11	0.597	
159	   O	1592.955	476.781	-1622.309	O.2	11	VAL11	-0.568	
160	  CB	1590.330	474.835	-1621.395	C.3	11	VAL11	0.299	
161	 CG1	1589.760	475.540	-1622.656	C.3	11	VAL11	-0.319	
162	 CG2	1589.807	473.380	-1621.470	C.3	11	VAL11	-0.319	
163	   H	1591.536	474.020	-1619.260	 H	11	VAL11	0.272	
164	  HA	1592.411	474.361	-1621.960	 H	11	VAL11	0.097	
165	  HB	1589.843	475.313	-1620.518	 H	11	VAL11	-0.030	
166	1HG1	1590.199	475.150	-1623.594	 H	11	VAL11	0.079	
167	2HG1	1588.661	475.432	-1622.737	 H	11	VAL11	0.079	
168	3HG1	1589.938	476.633	-1622.645	 H	11	VAL11	0.079	
169	1HG2	1590.098	472.792	-1620.580	 H	11	VAL11	0.079	
170	2HG2	1588.701	473.342	-1621.512	 H	11	VAL11	0.079	
171	3HG2	1590.189	472.841	-1622.358	 H	11	VAL11	0.079	
172	   N	1592.118	477.197	-1620.342	N.am	12	GLN12	-0.416	
173	  CA	1592.565	478.581	-1620.467	C.3	12	GLN12	-0.003	
174	   C	1594.054	478.650	-1620.706	C.2	12	GLN12	0.597	
175	   O	1594.540	479.360	-1621.583	O.2	12	GLN12	-0.568	
176	  CB	1592.174	479.345	-1619.183	C.3	12	GLN12	-0.004	
177	  CG	1592.533	480.868	-1619.149	C.3	12	GLN12	-0.064	
178	  CD	1592.230	481.678	-1617.883	C.2	12	GLN12	0.695	
179	 NE2	1591.664	481.099	-1616.854	N.pl3	12	GLN12	-0.941	
180	 OE1	1592.531	482.859	-1617.803	O.2	12	GLN12	-0.609	
181	   H	1591.630	476.889	-1619.514	 H	12	GLN12	0.272	
182	  HA	1592.064	479.038	-1621.341	 H	12	GLN12	0.085	
183	 2HB	1592.651	478.844	-1618.315	 H	12	GLN12	0.017	
184	 3HB	1591.084	479.237	-1619.019	 H	12	GLN12	0.017	
185	 2HG	1592.054	481.389	-1619.998	 H	12	GLN12	0.035	
186	 3HG	1593.616	481.011	-1619.315	 H	12	GLN12	0.035	
187	1HE2	1591.557	481.692	-1616.030	 H	12	GLN12	0.425	
188	2HE2	1591.502	480.096	-1616.960	 H	12	GLN12	0.425	
189	   N	1594.840	477.942	-1619.967	N.am	13	ARG13	-0.348	
190	  CA	1596.280	478.010	-1620.198	C.3	13	ARG13	-0.264	
191	   C	1596.616	477.641	-1621.624	C.2	13	ARG13	0.734	
192	   O	1597.384	478.315	-1622.307	O.2	13	ARG13	-0.589	
193	  CB	1596.995	477.070	-1619.186	C.3	13	ARG13	-0.001	
194	  CG	1598.539	477.224	-1619.105	C.3	13	ARG13	0.039	
195	  CD	1599.168	476.235	-1618.110	C.3	13	ARG13	0.049	
196	  NE	1600.645	476.443	-1618.059	N.pl3	13	ARG13	-0.530	
197	  CZ	1601.493	475.750	-1617.306	C.cat	13	ARG13	0.808	
198	 NH1	1601.130	474.784	-1616.510	N.pl3	13	ARG13	-0.863	
199	 NH2	1602.753	476.051	-1617.363	N.pl3	13	ARG13	-0.863	
200	   H	1594.465	477.351	-1619.239	 H	13	ARG13	0.275	
201	  HA	1596.604	479.056	-1620.037	 H	13	ARG13	0.156	
202	 2HB	1596.729	476.019	-1619.427	 H	13	ARG13	0.033	
203	 3HB	1596.570	477.234	-1618.175	 H	13	ARG13	0.033	
204	 2HG	1598.787	478.268	-1618.824	 H	13	ARG13	0.029	
205	 3HG	1598.990	477.070	-1620.107	 H	13	ARG13	0.029	
206	 2HD	1598.924	475.195	-1618.421	 H	13	ARG13	0.069	
207	 3HD	1598.711	476.378	-1617.107	 H	13	ARG13	0.069	
208	  HE	1601.095	477.166	-1618.629	 H	13	ARG13	0.346	
209	1HH1	1600.124	474.597	-1616.513	 H	13	ARG13	0.448	
210	2HH1	1601.843	474.301	-1615.963	 H	13	ARG13	0.448	
211	1HH2	1603.020	476.810	-1617.992	 H	13	ARG13	0.448	
212	2HH2	1603.389	475.508	-1616.775	 H	13	ARG13	0.448	
213	   N	1596.081	476.587	-1622.140	N.am	14	VAL14	-0.416	
214	  CA	1596.405	476.231	-1623.518	C.3	14	VAL14	-0.087	
215	   C	1596.074	477.363	-1624.461	C.2	14	VAL14	0.597	
216	   O	1596.867	477.746	-1625.331	O.2	14	VAL14	-0.568	
217	  CB	1595.634	474.914	-1623.927	C.3	14	VAL14	0.299	
218	 CG1	1595.723	474.499	-1625.422	C.3	14	VAL14	-0.319	
219	 CG2	1596.067	473.661	-1623.130	C.3	14	VAL14	-0.319	
220	   H	1595.446	476.017	-1621.599	 H	14	VAL14	0.272	
221	  HA	1597.494	476.055	-1623.594	 H	14	VAL14	0.097	
222	  HB	1594.557	475.084	-1623.711	 H	14	VAL14	-0.030	
223	1HG1	1596.764	474.323	-1625.751	 H	14	VAL14	0.079	
224	2HG1	1595.151	473.576	-1625.636	 H	14	VAL14	0.079	
225	3HG1	1595.293	475.262	-1626.098	 H	14	VAL14	0.079	
226	1HG2	1595.980	473.817	-1622.039	 H	14	VAL14	0.079	
227	2HG2	1595.432	472.784	-1623.363	 H	14	VAL14	0.079	
228	3HG2	1597.115	473.372	-1623.336	 H	14	VAL14	0.079	
229	   N	1594.929	477.947	-1624.358	N.am	15	MET15	-0.416	
230	  CA	1594.607	479.041	-1625.270	C.3	15	MET15	-0.024	
231	   C	1595.637	480.142	-1625.180	C.2	15	MET15	0.597	
232	   O	1596.139	480.655	-1626.192	O.2	15	MET15	-0.568	
233	  CB	1593.186	479.585	-1624.960	C.3	15	MET15	0.034	
234	  CG	1592.024	478.587	-1625.153	C.3	15	MET15	0.002	
235	  SD	1590.450	479.452	-1625.037	S.3	15	MET15	-0.274	
236	  CE	1589.370	478.021	-1624.903	C.3	15	MET15	-0.054	
237	   H	1594.264	477.653	-1623.657	 H	15	MET15	0.272	
238	  HA	1594.633	478.656	-1626.306	 H	15	MET15	0.088	
239	 2HB	1592.982	480.465	-1625.600	 H	15	MET15	0.024	
240	 3HB	1593.150	479.976	-1623.922	 H	15	MET15	0.024	
241	 2HG	1592.068	477.800	-1624.377	 H	15	MET15	0.044	
242	 3HG	1592.087	478.074	-1626.130	 H	15	MET15	0.044	
243	 1HE	1589.514	477.334	-1625.756	 H	15	MET15	0.068	
244	 2HE	1589.579	477.466	-1623.971	 H	15	MET15	0.068	
245	 3HE	1588.312	478.335	-1624.885	 H	15	MET15	0.068	
246	   N	1596.005	480.561	-1624.017	N.am	16	ARG16	-0.348	
247	  CA	1597.001	481.626	-1623.932	C.3	16	ARG16	-0.264	
248	   C	1598.272	481.235	-1624.649	C.2	16	ARG16	0.734	
249	   O	1598.386	480.160	-1625.232	O.2	16	ARG16	-0.589	
250	  CB	1597.270	481.941	-1622.433	C.3	16	ARG16	-0.001	
251	  CG	1598.094	483.230	-1622.158	C.3	16	ARG16	0.039	
252	  CD	1598.344	483.447	-1620.656	C.3	16	ARG16	0.049	
253	  NE	1599.119	484.706	-1620.453	N.pl3	16	ARG16	-0.530	
254	  CZ	1599.510	485.186	-1619.276	C.cat	16	ARG16	0.808	
255	 NH1	1599.263	484.600	-1618.139	N.pl3	16	ARG16	-0.863	
256	 NH2	1600.173	486.299	-1619.256	N.pl3	16	ARG16	-0.863	
257	   H	1595.611	480.159	-1623.178	 H	16	ARG16	0.275	
258	  HA	1596.591	482.519	-1624.440	 H	16	ARG16	0.156	
259	 2HB	1597.768	481.064	-1621.968	 H	16	ARG16	0.033	
260	 3HB	1596.301	482.020	-1621.898	 H	16	ARG16	0.033	
261	 2HG	1597.563	484.101	-1622.593	 H	16	ARG16	0.029	
262	 3HG	1599.068	483.179	-1622.687	 H	16	ARG16	0.029	
263	 2HD	1598.893	482.572	-1620.244	 H	16	ARG16	0.069	
264	 3HD	1597.371	483.488	-1620.120	 H	16	ARG16	0.069	
265	  HE	1599.397	485.289	-1621.249	 H	16	ARG16	0.346	
266	1HH1	1598.738	483.726	-1618.225	 H	16	ARG16	0.448	
267	2HH1	1599.598	485.034	-1617.277	 H	16	ARG16	0.448	
268	1HH2	1600.358	486.744	-1620.157	 H	16	ARG16	0.448	
269	2HH2	1600.464	486.653	-1618.343	 H	16	ARG16	0.448	
@<TRIPOS>BOND
1 1 2 1
2 1 10 1
3 2 3 1
4 2 5 1
5 2 11 1
6 3 4 2
7 3 16 1
8 5 6 1
9 6 7 1
10 7 8 2
11 7 9 1
12 5 12 1
13 5 13 1
14 6 14 1
15 6 15 1
16 16 17 1
17 16 24 1
18 17 18 1
19 17 20 1
20 17 25 1
21 18 19 2
22 18 30 1
23 20 21 1
24 21 22 1
25 21 23 2
26 20 26 1
27 20 27 1
28 22 28 1
29 22 29 1
30 30 31 1
31 30 36 1
32 31 32 1
33 31 34 1
34 31 37 1
35 32 33 2
36 32 44 1
37 34 35 1
38 35 36 1
39 34 38 1
40 34 39 1
41 35 40 1
42 35 41 1
43 36 42 1
44 36 43 1
45 44 45 1
46 44 53 1
47 45 46 1
48 45 48 1
49 45 54 1
50 46 47 2
51 46 59 1
52 48 49 1
53 49 50 1
54 50 51 2
55 50 52 1
56 48 55 1
57 48 56 1
58 49 57 1
59 49 58 1
60 59 60 1
61 59 65 1
62 60 61 1
63 60 63 1
64 60 66 1
65 61 62 2
66 61 70 1
67 63 64 1
68 63 67 1
69 63 68 1
70 64 69 1
71 70 71 1
72 70 78 1
73 71 72 1
74 71 74 1
75 71 79 1
76 72 73 2
77 72 89 1
78 74 75 1
79 74 76 1
80 75 77 1
81 74 80 1
82 75 81 1
83 75 82 1
84 76 83 1
85 76 84 1
86 76 85 1
87 77 86 1
88 77 87 1
89 77 88 1
90 89 90 1
91 89 97 1
92 90 91 1
93 90 93 1
94 90 98 1
95 91 92 2
96 91 108 1
97 93 94 1
98 94 95 1
99 94 96 1
100 93 99 1
101 93 100 1
102 94 101 1
103 95 102 1
104 95 103 1
105 95 104 1
106 96 105 1
107 96 106 1
108 96 107 1
109 108 109 1
110 108 116 1
111 109 110 1
112 109 112 1
113 109 117 1
114 110 111 2
115 110 120 1
116 112 113 1
117 113 114 2
118 113 115 1
119 112 118 1
120 112 119 1
121 120 121 1
122 120 129 1
123 121 122 1
124 121 124 1
125 121 130 1
126 122 123 2
127 122 135 1
128 124 125 1
129 125 126 1
130 126 127 2
131 126 128 1
132 124 131 1
133 124 132 1
134 125 133 1
135 125 134 1
136 135 136 1
137 135 147 1
138 136 137 1
139 136 139 1
140 136 148 1
141 137 138 2
142 137 156 1
143 139 140 1
144 140 141 2
145 140 142 1
146 142 144 2
147 141 143 1
148 144 145 1
149 143 145 2
150 145 146 1
151 139 149 1
152 139 150 1
153 141 151 1
154 142 152 1
155 143 153 1
156 144 154 1
157 146 155 1
158 156 157 1
159 156 163 1
160 157 158 1
161 157 160 1
162 157 164 1
163 158 159 2
164 158 172 1
165 160 161 1
166 160 162 1
167 160 165 1
168 161 166 1
169 161 167 1
170 161 168 1
171 162 169 1
172 162 170 1
173 162 171 1
174 172 173 1
175 172 181 1
176 173 174 1
177 173 176 1
178 173 182 1
179 174 175 2
180 174 189 1
181 176 177 1
182 177 178 1
183 178 179 1
184 178 180 2
185 176 183 1
186 176 184 1
187 177 185 1
188 177 186 1
189 179 187 1
190 179 188 1
191 189 190 1
192 189 200 1
193 190 191 1
194 190 193 1
195 190 201 1
196 191 192 2
197 191 213 1
198 193 194 1
199 194 195 1
200 195 196 1
201 196 197 1
202 197 198 2
203 197 199 1
204 193 202 1
205 193 203 1
206 194 204 1
207 194 205 1
208 195 206 1
209 195 207 1
210 196 208 1
211 198 209 1
212 198 210 1
213 199 211 1
214 199 212 1
215 213 214 1
216 213 220 1
217 214 215 1
218 214 217 1
219 214 221 1
220 215 216 2
221 215 229 1
222 217 218 1
223 217 219 1
224 217 222 1
225 218 223 1
226 218 224 1
227 218 225 1
228 219 226 1
229 219 227 1
230 219 228 1
231 229 230 1
232 229 237 1
233 230 231 1
234 230 233 1
235 230 238 1
236 231 232 2
237 231 246 1
238 233 234 1
239 234 235 1
240 235 236 1
241 233 239 1
242 233 240 1
243 234 241 1
244 234 242 1
245 236 243 1
246 236 244 1
247 236 245 1
248 246 247 1
249 246 257 1
250 247 248 1
251 247 250 1
252 247 258 1
253 248 249 2
254 250 251 1
255 251 252 1
256 252 253 1
257 253 254 1
258 254 255 2
259 254 256 1
260 250 259 1
261 250 260 1
262 251 261 1
263 251 262 1
264 252 263 1
265 252 264 1
266 253 265 1
267 255 266 1
268 255 267 1
269 256 268 1
270 256 269 1
@<TRIPOS>SUBSTRUCTURE
1	GLU1	1	RESIDUE	1 ****	GLU
2	ASN2	16	RESIDUE	1 ****	ASN
3	PRO3	30	RESIDUE	1 ****	PRO
4	GLU4	44	RESIDUE	1 ****	GLU
5	SER5	59	RESIDUE	1 ****	SER
6	ILE6	70	RESIDUE	1 ****	ILE
7	LEU7	89	RESIDUE	1 ****	LEU
8	ASP8	108	RESIDUE	1 ****	ASP
9	GLU9	120	RESIDUE	1 ****	GLU
10	TYR10	135	RESIDUE	1 ****	TYR
11	VAL11	156	RESIDUE	1 ****	VAL
12	GLN12	172	RESIDUE	1 ****	GLN
13	ARG13	189	RESIDUE	1 ****	ARG
14	VAL14	213	RESIDUE	1 ****	VAL
15	MET15	229	RESIDUE	1 ****	MET
16	ARG16	246	RESIDUE	1 ****	ARG
