REMARK WARNING: 32 MAX_TORS EXCEEDED!!!
REMARK  69 active torsions:
REMARK  status: ('A' for Active; 'I' for Inactive)
REMARK    1  A    between atoms: N_1  and  CA_2 
REMARK    2  A    between atoms: CA_2  and  C_3 
REMARK    3  A    between atoms: CA_2  and  CB_5 
REMARK       I    between atoms: C_3  and  N_11 
REMARK    4  A    between atoms: CB_5  and  CG_6 
REMARK    5  A    between atoms: CG_6  and  CD_7 
REMARK    6  A    between atoms: N_11  and  CA_12 
REMARK    7  A    between atoms: CA_12  and  C_13 
REMARK    8  A    between atoms: CA_12  and  CB_15 
REMARK       I    between atoms: C_13  and  N_22 
REMARK    9  A    between atoms: CB_15  and  CG_16 
REMARK       I    between atoms: CG_16  and  ND2_17 
REMARK   10  A    between atoms: CA_23  and  C_24 
REMARK       I    between atoms: C_24  and  N_29 
REMARK   11  A    between atoms: N_29  and  CA_30 
REMARK   12  A    between atoms: CA_30  and  C_31 
REMARK   13  A    between atoms: CA_30  and  CB_33 
REMARK       I    between atoms: C_31  and  N_39 
REMARK   14  A    between atoms: CB_33  and  CG_34 
REMARK   15  A    between atoms: CG_34  and  CD_35 
REMARK   16  A    between atoms: N_39  and  CA_40 
REMARK   17  A    between atoms: CA_40  and  C_41 
REMARK   18  A    between atoms: CA_40  and  CB_43 
REMARK       I    between atoms: C_41  and  N_47 
REMARK   19  A    between atoms: CB_43  and  OG_44 
REMARK   20  A    between atoms: N_47  and  CA_48 
REMARK   21  A    between atoms: CA_48  and  C_49 
REMARK   22  A    between atoms: CA_48  and  CB_51 
REMARK       I    between atoms: C_49  and  N_56 
REMARK   23  A    between atoms: CB_51  and  CG1_52 
REMARK   24  A    between atoms: N_56  and  CA_57 
REMARK   25  A    between atoms: CA_57  and  C_58 
REMARK   26  A    between atoms: CA_57  and  CB_60 
REMARK       I    between atoms: C_58  and  N_65 
REMARK   27  A    between atoms: CB_60  and  CG_61 
REMARK   28  A    between atoms: N_65  and  CA_66 
REMARK   29  A    between atoms: CA_66  and  C_67 
REMARK   30  A    between atoms: CA_66  and  CB_69 
REMARK       I    between atoms: C_67  and  N_74 
REMARK   31  A    between atoms: CB_69  and  CG_70 
REMARK   32  A    between atoms: N_74  and  CA_75 
REMARK   33  A    between atoms: CA_75  and  C_76 
REMARK   34  A    between atoms: CA_75  and  CB_78 
REMARK       I    between atoms: C_76  and  N_84 
REMARK   35  A    between atoms: CB_78  and  CG_79 
REMARK   36  A    between atoms: CG_79  and  CD_80 
REMARK   37  A    between atoms: N_84  and  CA_85 
REMARK   38  A    between atoms: CA_85  and  C_86 
REMARK   39  A    between atoms: CA_85  and  CB_88 
REMARK       I    between atoms: C_86  and  N_96 
REMARK   40  A    between atoms: CB_88  and  CG_89 
REMARK   41  A    between atoms: N_96  and  CA_97 
REMARK   42  A    between atoms: CA_97  and  C_98 
REMARK   43  A    between atoms: CA_97  and  CB_100 
REMARK       I    between atoms: C_98  and  N_112 
REMARK   44  A    between atoms: CB_100  and  CG_101 
REMARK   45  A    between atoms: N_112  and  CA_113 
REMARK   46  A    between atoms: CA_113  and  C_114 
REMARK   47  A    between atoms: CA_113  and  CB_116 
REMARK       I    between atoms: C_114  and  N_124 
REMARK   48  A    between atoms: CB_116  and  CG_117 
REMARK   49  A    between atoms: CG_117  and  CD_118 
REMARK       I    between atoms: CD_118  and  NE2_119 
REMARK   50  A    between atoms: N_124  and  CA_125 
REMARK   51  A    between atoms: CA_125  and  C_126 
REMARK   52  A    between atoms: CA_125  and  CB_128 
REMARK       I    between atoms: C_126  and  N_141 
REMARK   53  A    between atoms: CB_128  and  CG_129 
REMARK   54  A    between atoms: CG_129  and  CD_130 
REMARK   55  A    between atoms: CD_130  and  NE_131 
REMARK       I    between atoms: NE_131  and  CZ_132 
REMARK       I    between atoms: CZ_132  and  NH1_133 
REMARK       I    between atoms: CZ_132  and  NH2_134 
REMARK   56  A    between atoms: N_141  and  CA_142 
REMARK   57  A    between atoms: CA_142  and  C_143 
REMARK   58  A    between atoms: CA_142  and  CB_145 
REMARK       I    between atoms: C_143  and  N_149 
REMARK   59  A    between atoms: N_149  and  CA_150 
REMARK   60  A    between atoms: CA_150  and  C_151 
REMARK   61  A    between atoms: CA_150  and  CB_153 
REMARK       I    between atoms: C_151  and  N_158 
REMARK   62  A    between atoms: CB_153  and  CG_154 
REMARK   63  A    between atoms: CG_154  and  SD_155 
REMARK   64  A    between atoms: N_158  and  CA_159 
REMARK   65  A    between atoms: CA_159  and  C_160 
REMARK   66  A    between atoms: CA_159  and  CB_162 
REMARK   67  A    between atoms: CB_162  and  CG_163 
REMARK   68  A    between atoms: CG_163  and  CD_164 
REMARK   69  A    between atoms: CD_164  and  NE_165 
REMARK       I    between atoms: NE_165  and  CZ_166 
REMARK       I    between atoms: CZ_166  and  NH1_167 
ROOT
ATOM      1  CA  HIS d  10    1766.226 529.918-1804.987  0.00  0.00     0.182 C 
ENDROOT
BRANCH   1   2
ATOM      2  N   HIS d  10    1765.338 530.429-1803.947  0.00  0.00    -0.346 N 
ATOM      3  C   GLU d   9    1765.241 531.704-1803.777  0.00  0.00     0.241 C 
ATOM      4  O   GLU d   9    1765.904 532.459-1804.502  0.00  0.00    -0.271 OA
ATOM      5  H   HIS d  10    1764.807 529.793-1803.369  0.00  0.00     0.163 HD
BRANCH   3   6
ATOM      6  CA  GLU d   9    1764.322 532.231-1802.701  0.00  0.00     0.177 C 
BRANCH   6   7
ATOM      7  N   GLU d   9    1763.020 531.573-1802.757  0.00  0.00    -0.346 N 
ATOM      8  C   ASP d   8    1762.340 531.623-1803.852  0.00  0.00     0.241 C 
ATOM      9  O   ASP d   8    1762.812 532.228-1804.827  0.00  0.00    -0.271 OA
ATOM     10  H   GLU d   9    1762.656 531.086-1801.950  0.00  0.00     0.163 HD
BRANCH   8  11
ATOM     11  CA  ASP d   8    1760.994 530.943-1803.909  0.00  0.00     0.186 C 
BRANCH  11  12
ATOM     12  N   ASP d   8    1761.064 529.593-1803.356  0.00  0.00    -0.346 N 
ATOM     13  C   LEU d   7    1761.902 528.753-1803.863  0.00  0.00     0.241 C 
ATOM     14  O   LEU d   7    1762.622 529.116-1804.804  0.00  0.00    -0.271 OA
ATOM     15  H   ASP d   8    1760.466 529.322-1802.589  0.00  0.00     0.163 HD
BRANCH  13  16
ATOM     16  CA  LEU d   7    1761.974 527.358-1803.290  0.00  0.00     0.177 C 
BRANCH  16  17
ATOM     17  N   LEU d   7    1762.029 527.394-1801.832  0.00  0.00    -0.346 N 
ATOM     18  C   ILE d   6    1762.975 528.057-1801.258  0.00  0.00     0.241 C 
ATOM     19  O   ILE d   6    1763.810 528.645-1801.962  0.00  0.00    -0.271 OA
ATOM     20  H   LEU d   7    1761.337 526.906-1801.280  0.00  0.00     0.163 HD
BRANCH  18  21
ATOM     21  CA  ILE d   6    1763.032 528.095-1799.750  0.00  0.00     0.180 C 
BRANCH  21  22
ATOM     22  N   ILE d   6    1761.719 528.389-1799.184  0.00  0.00    -0.346 N 
ATOM     23  C   SER d   5    1761.114 529.472-1799.538  0.00  0.00     0.243 C 
ATOM     24  O   SER d   5    1761.661 530.226-1800.343  0.00  0.00    -0.271 OA
ATOM     25  H   ILE d   6    1761.291 527.755-1798.525  0.00  0.00     0.163 HD
BRANCH  23  26
ATOM     26  CA  SER d   5    1759.755 529.778-1798.953  0.00  0.00     0.200 C 
BRANCH  26  27
ATOM     27  N   SER d   5    1758.886 528.607-1799.011  0.00  0.00    -0.344 N 
ATOM     28  C   GLU d   4    1758.658 528.054-1800.154  0.00  0.00     0.241 C 
ATOM     29  O   GLU d   4    1759.185 528.534-1801.169  0.00  0.00    -0.271 OA
ATOM     30  H   SER d   5    1758.469 528.235-1798.169  0.00  0.00     0.163 HD
BRANCH  28  31
ATOM     31  CA  GLU d   4    1757.759 526.843-1800.215  0.00  0.00     0.177 C 
BRANCH  31  32
ATOM     32  N   GLU d   4    1758.119 525.872-1799.186  0.00  0.00    -0.346 N 
ATOM     33  C   PRO d   3    1759.324 525.412-1799.153  0.00  0.00     0.241 C 
ATOM     34  O   PRO d   3    1760.147 525.795-1799.985  0.00  0.00    -0.271 OA
ATOM     35  H   GLU d   4    1757.435 525.565-1798.509  0.00  0.00     0.163 HD
BRANCH  33  36
ATOM     36  CA  PRO d   3    1759.722 524.388-1798.076  0.00  0.00     0.179 C 
ATOM     37  N   PRO d   3    1759.270 524.798-1796.755  0.00  0.00    -0.337 N 
ATOM     38  C   ASN d   2    1759.792 525.793-1796.121  0.00  0.00     0.243 C 
ATOM     39  CD  PRO d   3    1758.192 524.005-1796.206  0.00  0.00     0.127 C 
ATOM     40  O   ASN d   2    1760.707 526.423-1796.650  0.00  0.00    -0.271 OA
ATOM     41  CG  PRO d   3    1757.734 523.186-1797.416  0.00  0.00     0.022 C 
ATOM     42  CB  PRO d   3    1759.018 523.034-1798.246  0.00  0.00     0.037 C 
BRANCH  38  43
ATOM     43  CA  ASN d   2    1759.260 526.148-1794.752  0.00  0.00     0.185 C 
BRANCH  43  44
ATOM     44  N   ASN d   2    1757.801 526.187-1794.752  0.00  0.00    -0.346 N 
ATOM     45  C   GLU d   1    1757.197 526.973-1795.577  0.00  0.00     0.242 C 
ATOM     46  O   GLU d   1    1757.872 527.672-1796.346  0.00  0.00    -0.271 OA
ATOM     47  H   ASN d   2    1757.273 525.607-1794.116  0.00  0.00     0.163 HD
BRANCH  45  48
ATOM     48  CA  GLU d   1    1755.688 527.013-1795.577  0.00  0.00     0.191 C 
BRANCH  48  49
ATOM     49  N   GLU d   1    1755.129 525.664-1795.577  0.00  0.00    -0.326 NA
ATOM     50  H   GLU d   1    1755.755 524.785-1795.577  0.00  0.00     0.180 HD
ENDBRANCH  48  49
BRANCH  48  51
ATOM     51  CB  GLU d   1    1755.165 527.798-1794.340  0.00  0.00     0.047 C 
BRANCH  51  52
ATOM     52  CG  GLU d   1    1755.640 529.283-1794.229  0.00  0.00     0.116 C 
BRANCH  52  53
ATOM     53  CD  GLU d   1    1755.216 530.087-1793.014  0.00  0.00     0.172 C 
ATOM     54  OE1 GLU d   1    1754.488 529.585-1792.136  0.00  0.00    -0.648 OA
ATOM     55  OE2 GLU d   1    1755.646 531.257-1792.942  0.00  0.00    -0.648 OA
ENDBRANCH  52  53
ENDBRANCH  51  52
ENDBRANCH  48  51
ENDBRANCH  45  48
ENDBRANCH  43  44
BRANCH  43  56
ATOM     56  CB  ASN d   2    1759.752 525.125-1793.688  0.00  0.00     0.137 C 
BRANCH  56  57
ATOM     57  CG  ASN d   2    1759.289 525.349-1792.245  0.00  0.00     0.217 C 
ATOM     58  ND2 ASN d   2    1759.884 526.264-1791.526  0.00  0.00    -0.370 N 
ATOM     59 21HD ASN d   2    1759.403 526.437-1790.640  0.00  0.00     0.159 HD
ATOM     60 22HD ASN d   2    1760.585 526.836-1791.995  0.00  0.00     0.159 HD
ATOM     61  OD1 ASN d   2    1758.368 524.715-1791.750  0.00  0.00    -0.274 OA
ENDBRANCH  56  57
ENDBRANCH  43  56
ENDBRANCH  38  43
ENDBRANCH  33  36
ENDBRANCH  31  32
BRANCH  31  62
ATOM     62  CB  GLU d   4    1756.271 527.262-1800.045  0.00  0.00     0.045 C 
BRANCH  62  63
ATOM     63  CG  GLU d   4    1755.723 528.265-1801.111  0.00  0.00     0.116 C 
BRANCH  63  64
ATOM     64  CD  GLU d   4    1754.296 528.762-1800.967  0.00  0.00     0.172 C 
ATOM     65  OE1 GLU d   4    1753.570 528.364-1800.036  0.00  0.00    -0.648 OA
ATOM     66  OE2 GLU d   4    1753.907 529.591-1801.815  0.00  0.00    -0.648 OA
ENDBRANCH  63  64
ENDBRANCH  62  63
ENDBRANCH  31  62
ENDBRANCH  28  31
ENDBRANCH  26  27
BRANCH  26  67
ATOM     67  CB  SER d   5    1759.867 530.310-1797.502  0.00  0.00     0.199 C 
BRANCH  67  68
ATOM     68  OG  SER d   5    1760.599 529.431-1796.641  0.00  0.00    -0.398 OA
ATOM     69  HG  SER d   5    1760.110 528.606-1796.590  0.00  0.00     0.209 HD
ENDBRANCH  67  68
ENDBRANCH  26  67
ENDBRANCH  23  26
ENDBRANCH  21  22
BRANCH  21  70
ATOM     70  CB  ILE d   6    1763.632 526.758-1799.150  0.00  0.00     0.013 C 
ATOM     71  CG2 ILE d   6    1765.073 526.457-1799.665  0.00  0.00     0.012 C 
BRANCH  70  72
ATOM     72  CG1 ILE d   6    1763.652 526.696-1797.589  0.00  0.00     0.002 C 
ATOM     73  CD1 ILE d   6    1763.922 525.307-1796.974  0.00  0.00     0.005 C 
ENDBRANCH  70  72
ENDBRANCH  21  70
ENDBRANCH  18  21
ENDBRANCH  16  17
BRANCH  16  74
ATOM     74  CB  LEU d   7    1760.771 526.497-1803.770  0.00  0.00     0.038 C 
BRANCH  74  75
ATOM     75  CG  LEU d   7    1760.699 525.018-1803.304  0.00  0.00    -0.020 C 
ATOM     76  CD1 LEU d   7    1759.509 524.312-1803.969  0.00  0.00     0.009 C 
ATOM     77  CD2 LEU d   7    1761.993 524.239-1803.595  0.00  0.00     0.009 C 
ENDBRANCH  74  75
ENDBRANCH  16  74
ENDBRANCH  13  16
ENDBRANCH  11  12
BRANCH  11  78
ATOM     78  CB  ASP d   8    1759.915 531.781-1803.168  0.00  0.00     0.147 C 
BRANCH  78  79
ATOM     79  CG  ASP d   8    1759.696 533.202-1803.708  0.00  0.00     0.175 C 
ATOM     80  OD1 ASP d   8    1759.760 533.401-1804.938  0.00  0.00    -0.648 OA
ATOM     81  OD2 ASP d   8    1759.504 534.128-1802.892  0.00  0.00    -0.648 OA
ENDBRANCH  78  79
ENDBRANCH  11  78
ENDBRANCH   8  11
ENDBRANCH   6   7
BRANCH   6  82
ATOM     82  CB  GLU d   9    1764.956 532.023-1801.296  0.00  0.00     0.045 C 
BRANCH  82  83
ATOM     83  CG  GLU d   9    1766.338 532.716-1801.066  0.00  0.00     0.116 C 
BRANCH  83  84
ATOM     84  CD  GLU d   9    1767.040 532.502-1799.738  0.00  0.00     0.172 C 
ATOM     85  OE1 GLU d   9    1766.518 531.811-1798.842  0.00  0.00    -0.648 OA
ATOM     86  OE2 GLU d   9    1768.159 533.041-1799.606  0.00  0.00    -0.648 OA
ENDBRANCH  83  84
ENDBRANCH  82  83
ENDBRANCH   6  82
ENDBRANCH   3   6
ENDBRANCH   1   2
BRANCH   1  87
ATOM     87  C   HIS d  10    1765.859 530.483-1806.338  0.00  0.00     0.241 C 
ATOM     88  O   HIS d  10    1766.711 530.948-1807.110  0.00  0.00    -0.271 OA
ATOM     89  N   TRP d  11    1764.621 530.482-1806.702  0.00  0.00    -0.346 N 
ATOM     90  H   TRP d  11    1763.908 530.108-1806.091  0.00  0.00     0.163 HD
BRANCH  89  91
ATOM     91  CA  TRP d  11    1764.266 531.028-1808.008  0.00  0.00     0.181 C 
BRANCH  91  92
ATOM     92  C   TRP d  11    1764.730 532.459-1808.141  0.00  0.00     0.241 C 
ATOM     93  O   TRP d  11    1765.327 532.860-1809.138  0.00  0.00    -0.271 OA
ATOM     94  N   GLN d  12    1764.493 533.286-1807.179  0.00  0.00    -0.346 N 
ATOM     95  H   GLN d  12    1764.004 532.980-1806.350  0.00  0.00     0.163 HD
BRANCH  94  96
ATOM     96  CA  GLN d  12    1764.941 534.669-1807.308  0.00  0.00     0.177 C 
BRANCH  96  97
ATOM     97  C   GLN d  12    1766.430 534.736-1807.546  0.00  0.00     0.241 C 
ATOM     98  O   GLN d  12    1766.917 535.444-1808.425  0.00  0.00    -0.271 OA
ATOM     99  N   ARG d  13    1767.215 534.030-1806.805  0.00  0.00    -0.346 N 
ATOM    100  H   ARG d  13    1766.840 533.441-1806.076  0.00  0.00     0.163 HD
BRANCH  99 101
ATOM    101  CA  ARG d  13    1768.656 534.097-1807.036  0.00  0.00     0.176 C 
BRANCH 101 102
ATOM    102  C   ARG d  13    1768.991 533.724-1808.461  0.00  0.00     0.241 C 
ATOM    103  O   ARG d  13    1769.759 534.395-1809.146  0.00  0.00    -0.271 OA
ATOM    104  N   VAL d  14    1768.455 532.669-1808.974  0.00  0.00    -0.346 N 
ATOM    105  H   VAL d  14    1767.821 532.100-1808.431  0.00  0.00     0.163 HD
BRANCH 104 106
ATOM    106  CA  VAL d  14    1768.780 532.308-1810.351  0.00  0.00     0.180 C 
BRANCH 106 107
ATOM    107  C   VAL d  14    1768.449 533.438-1811.298  0.00  0.00     0.241 C 
ATOM    108  O   VAL d  14    1769.241 533.819-1812.168  0.00  0.00    -0.271 OA
ATOM    109  N   MET d  15    1767.304 534.023-1811.196  0.00  0.00    -0.346 N 
ATOM    110  H   MET d  15    1766.639 533.731-1810.494  0.00  0.00     0.163 HD
BRANCH 109 111
ATOM    111  CA  MET d  15    1766.982 535.115-1812.110  0.00  0.00     0.177 C 
BRANCH 111 112
ATOM    112  C   MET d  15    1768.012 536.215-1812.024  0.00  0.00     0.241 C 
ATOM    113  O   MET d  15    1768.514 536.725-1813.037  0.00  0.00    -0.271 OA
ATOM    114  N   ARG d  16    1768.381 536.637-1810.862  0.00  0.00    -0.347 N 
ATOM    115  H   ARG d  16    1767.987 536.238-1810.022  0.00  0.00     0.163 HD
BRANCH 114 116
ATOM    116  CA  ARG d  16    1769.378 537.701-1810.780  0.00  0.00     0.162 C 
BRANCH 116 117
ATOM    117  C   ARG d  16    1770.648 537.309-1811.496  0.00  0.00     0.219 C 
ATOM    118  O   ARG d  16    1770.762 536.232-1812.077  0.00  0.00    -0.287 OA
ENDBRANCH 116 117
BRANCH 116 119
ATOM    119  CB  ARG d  16    1769.647 538.021-1809.281  0.00  0.00     0.035 C 
BRANCH 119 120
ATOM    120  CG  ARG d  16    1770.472 539.310-1809.010  0.00  0.00     0.023 C 
BRANCH 120 121
ATOM    121  CD  ARG d  16    1770.722 539.531-1807.509  0.00  0.00     0.138 C 
BRANCH 121 122
ATOM    122  NE  ARG d  16    1771.498 540.790-1807.309  0.00  0.00    -0.227 N 
ATOM    123  CZ  ARG d  16    1771.889 541.273-1806.134  0.00  0.00     0.665 C 
ATOM    124  NH1 ARG d  16    1771.642 540.690-1804.995  0.00  0.00    -0.235 N 
ATOM    125  NH2 ARG d  16    1772.553 542.386-1806.116  0.00  0.00    -0.235 N 
ATOM    126 11HH ARG d  16    1771.117 539.816-1805.078  0.00  0.00     0.174 HD
ATOM    127 12HH ARG d  16    1771.977 541.126-1804.134  0.00  0.00     0.174 HD
ATOM    128 21HH ARG d  16    1772.738 542.829-1807.019  0.00  0.00     0.174 HD
ATOM    129 22HH ARG d  16    1772.843 542.742-1805.204  0.00  0.00     0.174 HD
ATOM    130  HE  ARG d  16    1771.776 541.371-1808.107  0.00  0.00     0.177 HD
ENDBRANCH 121 122
ENDBRANCH 120 121
ENDBRANCH 119 120
ENDBRANCH 116 119
ENDBRANCH 114 116
ENDBRANCH 111 112
BRANCH 111 131
ATOM    131  CB  MET d  15    1765.561 535.660-1811.801  0.00  0.00     0.045 C 
BRANCH 131 132
ATOM    132  CG  MET d  15    1764.399 534.662-1811.991  0.00  0.00     0.076 C 
BRANCH 132 133
ATOM    133  SD  MET d  15    1762.825 535.527-1811.877  0.00  0.00    -0.173 SA
ATOM    134  CE  MET d  15    1761.744 534.097-1811.739  0.00  0.00     0.089 C 
ENDBRANCH 132 133
ENDBRANCH 131 132
ENDBRANCH 111 131
ENDBRANCH 109 111
ENDBRANCH 106 107
BRANCH 106 135
ATOM    135  CB  VAL d  14    1768.007 530.991-1810.756  0.00  0.00     0.009 C 
ATOM    136  CG1 VAL d  14    1768.096 530.571-1812.250  0.00  0.00     0.012 C 
ATOM    137  CG2 VAL d  14    1768.440 529.739-1809.955  0.00  0.00     0.012 C 
ENDBRANCH 106 135
ENDBRANCH 104 106
ENDBRANCH 101 102
BRANCH 101 138
ATOM    138  CB  ARG d  13    1769.370 533.159-1806.022  0.00  0.00     0.036 C 
BRANCH 138 139
ATOM    139  CG  ARG d  13    1770.915 533.312-1805.941  0.00  0.00     0.023 C 
BRANCH 139 140
ATOM    140  CD  ARG d  13    1771.542 532.326-1804.943  0.00  0.00     0.138 C 
BRANCH 140 141
ATOM    141  NE  ARG d  13    1773.019 532.533-1804.893  0.00  0.00    -0.227 N 
ATOM    142  CZ  ARG d  13    1773.868 531.843-1804.138  0.00  0.00     0.665 C 
ATOM    143  NH1 ARG d  13    1773.504 530.879-1803.340  0.00  0.00    -0.235 N 
ATOM    144  NH2 ARG d  13    1775.127 532.142-1804.196  0.00  0.00    -0.235 N 
ATOM    145 11HH ARG d  13    1772.498 530.692-1803.342  0.00  0.00     0.174 HD
ATOM    146 12HH ARG d  13    1774.217 530.397-1802.791  0.00  0.00     0.174 HD
ATOM    147 21HH ARG d  13    1775.394 532.900-1804.827  0.00  0.00     0.174 HD
ATOM    148 22HH ARG d  13    1775.763 531.602-1803.607  0.00  0.00     0.174 HD
ATOM    149  HE  ARG d  13    1773.470 533.255-1805.465  0.00  0.00     0.177 HD
ENDBRANCH 140 141
ENDBRANCH 139 140
ENDBRANCH 138 139
ENDBRANCH 101 138
ENDBRANCH  99 101
ENDBRANCH  96  97
BRANCH  96 150
ATOM    150  CB  GLN d  12    1764.550 535.437-1806.026  0.00  0.00     0.044 C 
BRANCH 150 151
ATOM    151  CG  GLN d  12    1764.909 536.959-1805.996  0.00  0.00     0.105 C 
BRANCH 151 152
ATOM    152  CD  GLN d  12    1764.607 537.774-1804.732  0.00  0.00     0.215 C 
ATOM    153  NE2 GLN d  12    1764.040 537.198-1803.703  0.00  0.00    -0.370 N 
ATOM    154 21HE GLN d  12    1763.933 537.793-1802.880  0.00  0.00     0.159 HD
ATOM    155 22HE GLN d  12    1763.877 536.194-1803.805  0.00  0.00     0.159 HD
ATOM    156  OE1 GLN d  12    1764.908 538.955-1804.656  0.00  0.00    -0.274 OA
ENDBRANCH 151 152
ENDBRANCH 150 151
ENDBRANCH  96 150
ENDBRANCH  94  96
ENDBRANCH  91  92
BRANCH  91 157
ATOM    157  CB  TRP d  11    1762.724 530.956-1808.187  0.00  0.00     0.075 C 
BRANCH 157 158
ATOM    158  CG  TRP d  11    1762.153 529.537-1808.264  0.00  0.00    -0.028 A 
ATOM    159  CD2 TRP d  11    1762.156 528.672-1809.339  0.00  0.00    -0.002 A 
ATOM    160  CE3 TRP d  11    1762.625 528.825-1810.669  0.00  0.00     0.014 A 
ATOM    161  CE2 TRP d  11    1761.596 527.443-1808.909  0.00  0.00     0.042 A 
ATOM    162  CZ3 TRP d  11    1762.502 527.744-1811.542  0.00  0.00     0.001 A 
ATOM    163  CH2 TRP d  11    1761.941 526.531-1811.121  0.00  0.00     0.002 A 
ATOM    164  CZ2 TRP d  11    1761.489 526.362-1809.810  0.00  0.00     0.030 A 
ATOM    165  NE1 TRP d  11    1761.234 527.509-1807.571  0.00  0.00    -0.365 N 
ATOM    166  CD1 TRP d  11    1761.591 528.817-1807.190  0.00  0.00     0.096 A 
ATOM    167  1HE TRP d  11    1760.844 526.761-1806.987  0.00  0.00     0.165 HD
ENDBRANCH 157 158
ENDBRANCH  91 157
ENDBRANCH  89  91
ENDBRANCH   1  87
BRANCH   1 168
ATOM    168  CB  HIS d  10    1766.062 528.389-1804.983  0.00  0.00     0.095 C 
BRANCH 168 169
ATOM    169  CG  HIS d  10    1767.348 527.679-1804.675  0.00  0.00     0.053 A 
ATOM    170  CD2 HIS d  10    1767.729 527.343-1803.382  0.00  0.00     0.116 A 
ATOM    171  NE2 HIS d  10    1768.944 526.712-1803.449  0.00  0.00    -0.359 N 
ATOM    172  CE1 HIS d  10    1769.207 526.715-1804.784  0.00  0.00     0.207 A 
ATOM    173  2HE HIS d  10    1769.510 526.335-1802.676  0.00  0.00     0.166 HD
ATOM    174  ND1 HIS d  10    1768.300 527.274-1805.607  0.00  0.00    -0.247 NA
ENDBRANCH 168 169
ENDBRANCH   1 168
TORSDOF 69
