@<TRIPOS>MOLECULE
6-20
270 271 16              
SMALL
USER_CHARGES
@<TRIPOS>ATOM
1	   N	1017.209	282.430	-995.654	N.3	1	GLU1	-0.516	
2	  CA	1017.768	283.779	-995.654	C.3	1	GLU1	0.040	
3	   C	1019.277	283.739	-995.654	C.2	1	GLU1	0.537	
4	   O	1019.953	284.439	-996.422	O.2	1	GLU1	-0.582	
5	  CB	1017.245	284.564	-994.417	C.3	1	GLU1	0.056	
6	  CG	1017.720	286.049	-994.306	C.3	1	GLU1	0.014	
7	  CD	1017.296	286.853	-993.091	C.2	1	GLU1	0.805	
8	 OE1	1016.568	286.351	-992.213	O.co2	1	GLU1	-0.819	
9	 OE2	1017.727	288.023	-993.019	O.co2	1	GLU1	-0.819	
10	   H	1017.836	281.551	-995.654	 H	1	GLU1	0.294	
11	  HA	1017.442	284.297	-996.574	 H	1	GLU1	0.111	
12	 2HB	1017.534	284.033	-993.487	 H	1	GLU1	-0.017	
13	 3HB	1016.138	284.554	-994.404	 H	1	GLU1	-0.017	
14	 2HG	1017.410	286.634	-995.187	 H	1	GLU1	-0.043	
15	 3HG	1018.820	286.116	-994.277	 H	1	GLU1	-0.043	
16	   N	1019.882	282.954	-994.829	N.am	2	ASN2	-0.416	
17	  CA	1021.341	282.915	-994.829	C.3	2	ASN2	0.014	
18	   C	1021.873	282.559	-996.197	C.2	2	ASN2	0.597	
19	   O	1022.788	283.190	-996.726	O.2	2	ASN2	-0.568	
20	  CB	1021.833	281.892	-993.764	C.3	2	ASN2	-0.204	
21	  CG	1021.370	282.116	-992.321	C.2	2	ASN2	0.713	
22	 ND2	1021.965	283.031	-991.603	N.pl3	2	ASN2	-0.919	
23	 OD1	1020.450	281.482	-991.827	O.2	2	ASN2	-0.593	
24	   H	1019.354	282.374	-994.192	 H	2	ASN2	0.272	
25	  HA	1021.719	283.925	-994.583	 H	2	ASN2	0.105	
26	 2HB	1022.938	281.833	-993.768	 H	2	ASN2	0.080	
27	 3HB	1021.504	280.874	-994.050	 H	2	ASN2	0.080	
28	1HD2	1021.484	283.204	-990.716	 H	2	ASN2	0.420	
29	2HD2	1022.666	283.602	-992.072	 H	2	ASN2	0.420	
30	   N	1021.351	281.564	-996.831	N.am	3	PRO3	-0.255	
31	  CA	1021.803	281.155	-998.153	C.3	3	PRO3	-0.027	
32	   C	1021.405	282.179	-999.230	C.2	3	PRO3	0.590	
33	   O	1022.228	282.562	-1000.061	O.2	3	PRO3	-0.575	
34	  CB	1021.099	279.800	-998.322	C.3	3	PRO3	-0.007	
35	  CG	1019.816	279.952	-997.492	C.3	3	PRO3	0.019	
36	  CD	1020.273	280.771	-996.282	C.3	3	PRO3	0.019	
37	  HA	1022.889	281.035	-998.167	 H	3	PRO3	0.064	
38	 2HB	1021.722	279.019	-997.882	 H	3	PRO3	0.025	
39	 3HB	1020.901	279.552	-999.368	 H	3	PRO3	0.025	
40	 2HG	1019.388	278.990	-997.201	 H	3	PRO3	0.021	
41	 3HG	1019.078	280.523	-998.060	 H	3	PRO3	0.021	
42	 2HD	1020.663	280.122	-995.495	 H	3	PRO3	0.039	
43	 3HD	1019.477	281.407	-995.889	 H	3	PRO3	0.039	
44	   N	1020.200	282.638	-999.262	N.am	4	GLU4	-0.516	
45	  CA	1019.840	283.609	-1000.292	C.3	4	GLU4	0.040	
46	   C	1020.739	284.821	-1000.231	C.2	4	GLU4	0.537	
47	   O	1021.266	285.300	-1001.245	O.2	4	GLU4	-0.582	
48	  CB	1018.352	284.028	-1000.122	C.3	4	GLU4	0.056	
49	  CG	1017.804	285.031	-1001.187	C.3	4	GLU4	0.014	
50	  CD	1016.377	285.528	-1001.044	C.2	4	GLU4	0.805	
51	 OE1	1015.651	285.129	-1000.113	O.co2	4	GLU4	-0.819	
52	 OE2	1015.987	286.357	-1001.892	O.co2	4	GLU4	-0.819	
53	   H	1019.516	282.332	-998.585	 H	4	GLU4	0.294	
54	  HA	1019.971	283.139	-1001.283	 H	4	GLU4	0.111	
55	 2HB	1018.199	284.468	-999.115	 H	4	GLU4	-0.017	
56	 3HB	1017.704	283.130	-1000.128	 H	4	GLU4	-0.017	
57	 2HG	1017.885	284.617	-1002.205	 H	4	GLU4	-0.043	
58	 3HG	1018.391	285.964	-1001.198	 H	4	GLU4	-0.043	
59	   N	1020.966	285.373	-999.087	N.am	5	SER5	-0.416	
60	  CA	1021.836	286.545	-999.029	C.3	5	SER5	-0.025	
61	   C	1023.195	286.239	-999.614	C.2	5	SER5	0.597	
62	   O	1023.742	286.993	-1000.419	O.2	5	SER5	-0.568	
63	  CB	1021.947	287.077	-997.578	C.3	5	SER5	0.212	
64	  OG	1022.679	286.198	-996.717	O.3	5	SER5	-0.655	
65	   H	1020.549	285.002	-998.246	 H	5	SER5	0.272	
66	  HA	1021.386	287.335	-999.658	 H	5	SER5	0.084	
67	 2HB	1020.947	287.271	-997.145	 H	5	SER5	0.035	
68	 3HB	1022.452	288.063	-997.581	 H	5	SER5	0.035	
69	  HG	1022.190	285.373	-996.667	 H	5	SER5	0.428	
70	   N	1023.800	285.156	-999.260	N.am	6	ARG6	-0.348	
71	  CA	1025.113	284.862	-999.826	C.3	6	ARG6	-0.264	
72	   C	1025.054	284.825	-1001.335	C.2	6	ARG6	0.734	
73	   O	1025.880	285.407	-1002.034	O.2	6	ARG6	-0.589	
74	  CB	1025.618	283.511	-999.245	C.3	6	ARG6	-0.001	
75	  CG	1027.111	283.178	-999.525	C.3	6	ARG6	0.039	
76	  CD	1027.516	281.812	-998.947	C.3	6	ARG6	0.049	
77	  NE	1028.960	281.558	-999.227	N.pl3	6	ARG6	-0.530	
78	  CZ	1029.631	280.466	-998.872	C.cat	6	ARG6	0.808	
79	 NH1	1029.095	279.466	-998.230	N.pl3	6	ARG6	-0.863	
80	 NH2	1030.887	280.389	-999.180	N.pl3	6	ARG6	-0.863	
81	   H	1023.372	284.522	-998.601	 H	6	ARG6	0.275	
82	  HA	1025.801	285.680	-999.539	 H	6	ARG6	0.156	
83	 2HB	1024.969	282.695	-999.625	 H	6	ARG6	0.033	
84	 3HB	1025.453	283.503	-998.148	 H	6	ARG6	0.033	
85	 2HG	1027.748	283.983	-999.104	 H	6	ARG6	0.029	
86	 3HG	1027.304	283.186	-1000.617	 H	6	ARG6	0.029	
87	 2HD	1026.879	281.019	-999.396	 H	6	ARG6	0.069	
88	 3HD	1027.314	281.797	-997.855	 H	6	ARG6	0.069	
89	  HE	1029.530	282.247	-999.728	 H	6	ARG6	0.346	
90	1HH1	1028.102	279.590	-998.019	 H	6	ARG6	0.448	
91	2HH1	1029.679	278.663	-997.992	 H	6	ARG6	0.448	
92	1HH2	1031.290	281.181	-999.684	 H	6	ARG6	0.448	
93	2HH2	1031.386	279.543	-998.897	 H	6	ARG6	0.448	
94	   N	1024.108	284.161	-1001.908	N.am	7	LEU7	-0.416	
95	  CA	1024.052	284.125	-1003.366	C.3	7	LEU7	-0.052	
96	   C	1023.978	285.520	-1003.939	C.2	7	LEU7	0.597	
97	   O	1024.698	285.884	-1004.881	O.2	7	LEU7	-0.568	
98	  CB	1022.848	283.264	-1003.846	C.3	7	LEU7	-0.110	
99	  CG	1022.776	281.785	-1003.379	C.3	7	LEU7	0.353	
100	 CD1	1021.586	281.079	-1004.044	C.3	7	LEU7	-0.412	
101	 CD2	1024.070	281.006	-1003.672	C.3	7	LEU7	-0.412	
102	   H	1023.417	283.674	-1001.356	 H	7	LEU7	0.272	
103	  HA	1024.993	283.685	-1003.742	 H	7	LEU7	0.092	
104	 2HB	1022.824	283.280	-1004.953	 H	7	LEU7	0.046	
105	 3HB	1021.909	283.767	-1003.541	 H	7	LEU7	0.046	
106	  HG	1022.608	281.777	-1002.282	 H	7	LEU7	-0.036	
107	1HD1	1020.629	281.588	-1003.820	 H	7	LEU7	0.100	
108	2HD1	1021.684	281.039	-1005.145	 H	7	LEU7	0.100	
109	3HD1	1021.480	280.038	-1003.688	 H	7	LEU7	0.100	
110	1HD2	1024.344	281.037	-1004.742	 H	7	LEU7	0.100	
111	2HD2	1024.924	281.418	-1003.102	 H	7	LEU7	0.100	
112	3HD2	1023.989	279.944	-1003.376	 H	7	LEU7	0.100	
113	   N	1023.141	286.361	-1003.431	N.am	8	ASP8	-0.516	
114	  CA	1023.070	287.710	-1003.984	C.3	8	ASP8	0.038	
115	   C	1024.416	288.390	-1003.928	C.2	8	ASP8	0.537	
116	   O	1024.888	288.996	-1004.903	O.2	8	ASP8	-0.582	
117	  CB	1021.992	288.549	-1003.241	C.3	8	ASP8	-0.030	
118	  CG	1021.772	289.969	-1003.781	C.2	8	ASP8	0.799	
119	 OD1	1021.835	290.169	-1005.012	O.co2	8	ASP8	-0.801	
120	 OD2	1021.581	290.895	-1002.965	O.co2	8	ASP8	-0.801	
121	   H	1022.544	286.089	-1002.663	 H	8	ASP8	0.294	
122	  HA	1022.786	287.633	-1005.051	 H	8	ASP8	0.088	
123	 2HB	1022.251	288.632	-1002.169	 H	8	ASP8	-0.012	
124	 3HB	1021.013	288.043	-1003.273	 H	8	ASP8	-0.012	
125	   N	1025.097	288.341	-1002.834	N.am	9	GLU9	-0.516	
126	  CA	1026.400	288.999	-1002.780	C.3	9	GLU9	0.040	
127	   C	1027.317	288.471	-1003.857	C.2	9	GLU9	0.537	
128	   O	1027.980	289.226	-1004.583	O.2	9	GLU9	-0.582	
129	  CB	1027.035	288.791	-1001.375	C.3	9	GLU9	0.056	
130	  CG	1028.417	289.483	-1001.147	C.3	9	GLU9	0.014	
131	  CD	1029.121	289.270	-999.820	C.2	9	GLU9	0.805	
132	 OE1	1028.600	288.579	-998.923	O.co2	9	GLU9	-0.819	
133	 OE2	1030.240	289.808	-999.689	O.co2	9	GLU9	-0.819	
134	   H	1024.735	287.854	-1002.026	 H	9	GLU9	0.294	
135	  HA	1026.257	290.080	-1002.955	 H	9	GLU9	0.111	
136	 2HB	1027.148	287.706	-1001.172	 H	9	GLU9	-0.017	
137	 3HB	1026.339	289.144	-1000.590	 H	9	GLU9	-0.017	
138	 2HG	1028.345	290.574	-1001.286	 H	9	GLU9	-0.043	
139	 3HG	1029.163	289.139	-1001.882	 H	9	GLU9	-0.043	
140	   N	1027.414	287.196	-1004.027	N.am	10	HIS10	-0.416	
141	  CA	1028.301	286.686	-1005.068	C.3	10	HIS10	-0.058	
142	   C	1027.932	287.251	-1006.419	C.2	10	HIS10	0.597	
143	   O	1028.784	287.716	-1007.191	O.2	10	HIS10	-0.568	
144	  CB	1028.138	285.157	-1005.064	C.3	10	HIS10	-0.007	
145	  CG	1029.424	284.447	-1004.758	C.2	10	HIS10	0.187	
146	 CD2	1029.806	284.112	-1003.465	C.2	10	HIS10	-0.221	
147	 ND1	1030.375	284.042	-1005.691	N.2	10	HIS10	-0.543	
148	 CE1	1031.283	283.484	-1004.869	C.2	10	HIS10	0.163	
149	 NE2	1031.022	283.481	-1003.534	N.pl3	10	HIS10	-0.280	
150	   H	1026.884	286.560	-1003.448	 H	10	HIS10	0.272	
151	  HA	1029.320	287.044	-1004.844	 H	10	HIS10	0.136	
152	 2HB	1027.771	284.790	-1006.044	 H	10	HIS10	0.037	
153	 3HB	1027.383	284.819	-1004.323	 H	10	HIS10	0.037	
154	 2HD	1029.222	284.326	-1002.576	 H	10	HIS10	0.186	
155	 1HE	1032.173	283.064	-1005.317	 H	10	HIS10	0.144	
156	 2HE	1031.589	283.103	-1002.761	 H	10	HIS10	0.334	
157	   N	1026.694	287.249	-1006.781	N.am	11	VAL11	-0.416	
158	  CA	1026.337	287.796	-1008.087	C.3	11	VAL11	-0.087	
159	   C	1026.801	289.227	-1008.219	C.2	11	VAL11	0.597	
160	   O	1027.401	289.633	-1009.222	O.2	11	VAL11	-0.568	
161	  CB	1024.776	287.689	-1008.305	C.3	11	VAL11	0.299	
162	 CG1	1024.206	288.393	-1009.567	C.3	11	VAL11	-0.319	
163	 CG2	1024.252	286.234	-1008.378	C.3	11	VAL11	-0.319	
164	   H	1025.982	286.876	-1006.169	 H	11	VAL11	0.272	
165	  HA	1026.856	287.214	-1008.870	 H	11	VAL11	0.097	
166	  HB	1024.289	288.168	-1007.429	 H	11	VAL11	-0.030	
167	1HG1	1024.644	288.002	-1010.504	 H	11	VAL11	0.079	
168	2HG1	1023.107	288.286	-1009.647	 H	11	VAL11	0.079	
169	3HG1	1024.383	289.486	-1009.557	 H	11	VAL11	0.079	
170	1HG2	1024.543	285.647	-1007.488	 H	11	VAL11	0.079	
171	2HG2	1023.146	286.197	-1008.420	 H	11	VAL11	0.079	
172	3HG2	1024.633	285.694	-1009.265	 H	11	VAL11	0.079	
173	   N	1026.564	290.052	-1007.256	N.am	12	GLN12	-0.416	
174	  CA	1027.012	291.435	-1007.383	C.3	12	GLN12	-0.003	
175	   C	1028.502	291.503	-1007.622	C.2	12	GLN12	0.597	
176	   O	1028.988	292.213	-1008.501	O.2	12	GLN12	-0.568	
177	  CB	1026.622	292.202	-1006.099	C.3	12	GLN12	-0.004	
178	  CG	1026.982	293.724	-1006.068	C.3	12	GLN12	-0.064	
179	  CD	1026.680	294.536	-1004.802	C.2	12	GLN12	0.695	
180	 NE2	1026.114	293.959	-1003.773	N.pl3	12	GLN12	-0.941	
181	 OE1	1026.981	295.717	-1004.724	O.2	12	GLN12	-0.609	
182	   H	1026.077	289.745	-1006.426	 H	12	GLN12	0.272	
183	  HA	1026.512	291.892	-1008.257	 H	12	GLN12	0.085	
184	 2HB	1027.099	291.701	-1005.231	 H	12	GLN12	0.017	
185	 3HB	1025.532	292.094	-1005.935	 H	12	GLN12	0.017	
186	 2HG	1026.503	294.245	-1006.917	 H	12	GLN12	0.035	
187	 3HG	1028.065	293.866	-1006.234	 H	12	GLN12	0.035	
188	1HE2	1026.008	294.553	-1002.949	 H	12	GLN12	0.425	
189	2HE2	1025.951	292.955	-1003.877	 H	12	GLN12	0.425	
190	   N	1029.287	290.797	-1006.882	N.am	13	ARG13	-0.348	
191	  CA	1030.727	290.863	-1007.115	C.3	13	ARG13	-0.264	
192	   C	1031.062	290.493	-1008.540	C.2	13	ARG13	0.734	
193	   O	1031.830	291.166	-1009.225	O.2	13	ARG13	-0.589	
194	  CB	1031.443	289.924	-1006.102	C.3	13	ARG13	-0.001	
195	  CG	1032.988	290.078	-1006.023	C.3	13	ARG13	0.039	
196	  CD	1033.616	289.090	-1005.026	C.3	13	ARG13	0.049	
197	  NE	1035.093	289.298	-1004.977	N.pl3	13	ARG13	-0.530	
198	  CZ	1035.943	288.607	-1004.224	C.cat	13	ARG13	0.808	
199	 NH1	1035.579	287.642	-1003.426	N.pl3	13	ARG13	-0.863	
200	 NH2	1037.202	288.906	-1004.282	N.pl3	13	ARG13	-0.863	
201	   H	1028.912	290.206	-1006.154	 H	13	ARG13	0.275	
202	  HA	1031.051	291.909	-1006.956	 H	13	ARG13	0.156	
203	 2HB	1031.176	288.874	-1006.342	 H	13	ARG13	0.033	
204	 3HB	1031.018	290.090	-1005.091	 H	13	ARG13	0.033	
205	 2HG	1033.235	291.123	-1005.743	 H	13	ARG13	0.029	
206	 3HG	1033.437	289.923	-1007.025	 H	13	ARG13	0.029	
207	 2HD	1033.372	288.050	-1005.336	 H	13	ARG13	0.069	
208	 3HD	1033.161	289.235	-1004.023	 H	13	ARG13	0.069	
209	  HE	1035.543	290.021	-1005.548	 H	13	ARG13	0.346	
210	1HH1	1034.574	287.455	-1003.429	 H	13	ARG13	0.448	
211	2HH1	1036.293	287.159	-1002.879	 H	13	ARG13	0.448	
212	1HH2	1037.468	289.665	-1004.913	 H	13	ARG13	0.448	
213	2HH2	1037.838	288.365	-1003.694	 H	13	ARG13	0.448	
214	   N	1030.526	289.439	-1009.055	N.am	14	VAL14	-0.416	
215	  CA	1030.850	289.080	-1010.433	C.3	14	VAL14	-0.087	
216	   C	1030.518	290.211	-1011.377	C.2	14	VAL14	0.597	
217	   O	1031.311	290.593	-1012.248	O.2	14	VAL14	-0.568	
218	  CB	1030.078	287.763	-1010.840	C.3	14	VAL14	0.299	
219	 CG1	1030.166	287.346	-1012.334	C.3	14	VAL14	-0.319	
220	 CG2	1030.512	286.511	-1010.041	C.3	14	VAL14	-0.319	
221	   H	1029.892	288.869	-1008.513	 H	14	VAL14	0.272	
222	  HA	1031.938	288.904	-1010.509	 H	14	VAL14	0.097	
223	  HB	1029.002	287.934	-1010.623	 H	14	VAL14	-0.030	
224	1HG1	1031.207	287.170	-1012.664	 H	14	VAL14	0.079	
225	2HG1	1029.594	286.422	-1012.547	 H	14	VAL14	0.079	
226	3HG1	1029.736	288.108	-1013.011	 H	14	VAL14	0.079	
227	1HG2	1030.425	286.668	-1008.950	 H	14	VAL14	0.079	
228	2HG2	1029.876	285.634	-1010.273	 H	14	VAL14	0.079	
229	3HG2	1031.559	286.222	-1010.248	 H	14	VAL14	0.079	
230	   N	1029.373	290.796	-1011.274	N.am	15	MET15	-0.416	
231	  CA	1029.052	291.889	-1012.187	C.3	15	MET15	-0.024	
232	   C	1030.081	292.989	-1012.100	C.2	15	MET15	0.597	
233	   O	1030.583	293.501	-1013.113	O.2	15	MET15	-0.568	
234	  CB	1027.630	292.434	-1011.876	C.3	15	MET15	0.034	
235	  CG	1026.468	291.435	-1012.067	C.3	15	MET15	0.002	
236	  SD	1024.894	292.300	-1011.951	S.3	15	MET15	-0.274	
237	  CE	1023.814	290.869	-1011.814	C.3	15	MET15	-0.054	
238	   H	1028.709	290.502	-1010.572	 H	15	MET15	0.272	
239	  HA	1029.076	291.502	-1013.223	 H	15	MET15	0.088	
240	 2HB	1027.427	293.313	-1012.518	 H	15	MET15	0.024	
241	 3HB	1027.595	292.826	-1010.840	 H	15	MET15	0.024	
242	 2HG	1026.513	290.649	-1011.290	 H	15	MET15	0.044	
243	 3HG	1026.531	290.920	-1013.044	 H	15	MET15	0.044	
244	 1HE	1023.957	290.182	-1012.667	 H	15	MET15	0.068	
245	 2HE	1024.024	290.316	-1010.882	 H	15	MET15	0.068	
246	 3HE	1022.756	291.184	-1011.796	 H	15	MET15	0.068	
247	   N	1030.451	293.410	-1010.938	N.am	16	ARG16	-0.348	
248	  CA	1031.447	294.475	-1010.855	C.3	16	ARG16	-0.264	
249	   C	1032.717	294.083	-1011.572	C.2	16	ARG16	0.734	
250	   O	1032.831	293.007	-1012.154	O.2	16	ARG16	-0.589	
251	  CB	1031.717	294.792	-1009.357	C.3	16	ARG16	-0.001	
252	  CG	1032.542	296.082	-1009.084	C.3	16	ARG16	0.039	
253	  CD	1032.793	296.301	-1007.583	C.3	16	ARG16	0.049	
254	  NE	1033.569	297.560	-1007.383	N.pl3	16	ARG16	-0.530	
255	  CZ	1033.961	298.042	-1006.207	C.cat	16	ARG16	0.808	
256	 NH1	1033.715	297.457	-1005.069	N.pl3	16	ARG16	-0.863	
257	 NH2	1034.624	299.155	-1006.189	N.pl3	16	ARG16	-0.863	
258	   H	1030.057	293.010	-1010.098	 H	16	ARG16	0.275	
259	  HA	1031.037	295.367	-1011.364	 H	16	ARG16	0.156	
260	 2HB	1032.215	293.916	-1008.891	 H	16	ARG16	0.033	
261	 3HB	1030.749	294.872	-1008.822	 H	16	ARG16	0.033	
262	 2HG	1032.011	296.952	-1009.521	 H	16	ARG16	0.029	
263	 3HG	1033.515	296.029	-1009.614	 H	16	ARG16	0.029	
264	 2HD	1033.343	295.426	-1007.171	 H	16	ARG16	0.069	
265	 3HD	1031.821	296.342	-1007.047	 H	16	ARG16	0.069	
266	  HE	1033.846	298.141	-1008.180	 H	16	ARG16	0.346	
267	1HH1	1033.190	296.584	-1005.153	 H	16	ARG16	0.448	
268	2HH1	1034.050	297.893	-1004.208	 H	16	ARG16	0.448	
269	1HH2	1034.809	299.599	-1007.091	 H	16	ARG16	0.448	
270	2HH2	1034.915	299.510	-1005.277	 H	16	ARG16	0.448	
@<TRIPOS>BOND
1 1 2 1
2 1 10 1
3 2 3 1
4 2 5 1
5 2 11 1
6 3 4 2
7 3 16 1
8 5 6 1
9 6 7 1
10 7 8 2
11 7 9 1
12 5 12 1
13 5 13 1
14 6 14 1
15 6 15 1
16 16 17 1
17 16 24 1
18 17 18 1
19 17 20 1
20 17 25 1
21 18 19 2
22 18 30 1
23 20 21 1
24 21 22 1
25 21 23 2
26 20 26 1
27 20 27 1
28 22 28 1
29 22 29 1
30 30 31 1
31 30 36 1
32 31 32 1
33 31 34 1
34 31 37 1
35 32 33 2
36 32 44 1
37 34 35 1
38 35 36 1
39 34 38 1
40 34 39 1
41 35 40 1
42 35 41 1
43 36 42 1
44 36 43 1
45 44 45 1
46 44 53 1
47 45 46 1
48 45 48 1
49 45 54 1
50 46 47 2
51 46 59 1
52 48 49 1
53 49 50 1
54 50 51 2
55 50 52 1
56 48 55 1
57 48 56 1
58 49 57 1
59 49 58 1
60 59 60 1
61 59 65 1
62 60 61 1
63 60 63 1
64 60 66 1
65 61 62 2
66 61 70 1
67 63 64 1
68 63 67 1
69 63 68 1
70 64 69 1
71 70 71 1
72 70 81 1
73 71 72 1
74 71 74 1
75 71 82 1
76 72 73 2
77 72 94 1
78 74 75 1
79 75 76 1
80 76 77 1
81 77 78 1
82 78 79 2
83 78 80 1
84 74 83 1
85 74 84 1
86 75 85 1
87 75 86 1
88 76 87 1
89 76 88 1
90 77 89 1
91 79 90 1
92 79 91 1
93 80 92 1
94 80 93 1
95 94 95 1
96 94 102 1
97 95 96 1
98 95 98 1
99 95 103 1
100 96 97 2
101 96 113 1
102 98 99 1
103 99 100 1
104 99 101 1
105 98 104 1
106 98 105 1
107 99 106 1
108 100 107 1
109 100 108 1
110 100 109 1
111 101 110 1
112 101 111 1
113 101 112 1
114 113 114 1
115 113 121 1
116 114 115 1
117 114 117 1
118 114 122 1
119 115 116 2
120 115 125 1
121 117 118 1
122 118 119 2
123 118 120 1
124 117 123 1
125 117 124 1
126 125 126 1
127 125 134 1
128 126 127 1
129 126 129 1
130 126 135 1
131 127 128 2
132 127 140 1
133 129 130 1
134 130 131 1
135 131 132 2
136 131 133 1
137 129 136 1
138 129 137 1
139 130 138 1
140 130 139 1
141 140 141 1
142 140 150 1
143 141 142 1
144 141 144 1
145 141 151 1
146 142 143 2
147 142 157 1
148 144 145 1
149 145 146 2
150 146 149 1
151 145 147 1
152 147 148 2
153 148 149 1
154 144 152 1
155 144 153 1
156 146 154 1
157 148 155 1
158 149 156 1
159 157 158 1
160 157 164 1
161 158 159 1
162 158 161 1
163 158 165 1
164 159 160 2
165 159 173 1
166 161 162 1
167 161 163 1
168 161 166 1
169 162 167 1
170 162 168 1
171 162 169 1
172 163 170 1
173 163 171 1
174 163 172 1
175 173 174 1
176 173 182 1
177 174 175 1
178 174 177 1
179 174 183 1
180 175 176 2
181 175 190 1
182 177 178 1
183 178 179 1
184 179 180 1
185 179 181 2
186 177 184 1
187 177 185 1
188 178 186 1
189 178 187 1
190 180 188 1
191 180 189 1
192 190 191 1
193 190 201 1
194 191 192 1
195 191 194 1
196 191 202 1
197 192 193 2
198 192 214 1
199 194 195 1
200 195 196 1
201 196 197 1
202 197 198 1
203 198 199 2
204 198 200 1
205 194 203 1
206 194 204 1
207 195 205 1
208 195 206 1
209 196 207 1
210 196 208 1
211 197 209 1
212 199 210 1
213 199 211 1
214 200 212 1
215 200 213 1
216 214 215 1
217 214 221 1
218 215 216 1
219 215 218 1
220 215 222 1
221 216 217 2
222 216 230 1
223 218 219 1
224 218 220 1
225 218 223 1
226 219 224 1
227 219 225 1
228 219 226 1
229 220 227 1
230 220 228 1
231 220 229 1
232 230 231 1
233 230 238 1
234 231 232 1
235 231 234 1
236 231 239 1
237 232 233 2
238 232 247 1
239 234 235 1
240 235 236 1
241 236 237 1
242 234 240 1
243 234 241 1
244 235 242 1
245 235 243 1
246 237 244 1
247 237 245 1
248 237 246 1
249 247 248 1
250 247 258 1
251 248 249 1
252 248 251 1
253 248 259 1
254 249 250 2
255 251 252 1
256 252 253 1
257 253 254 1
258 254 255 1
259 255 256 2
260 255 257 1
261 251 260 1
262 251 261 1
263 252 262 1
264 252 263 1
265 253 264 1
266 253 265 1
267 254 266 1
268 256 267 1
269 256 268 1
270 257 269 1
271 257 270 1
@<TRIPOS>SUBSTRUCTURE
1	GLU1	1	RESIDUE	1 ****	GLU
2	ASN2	16	RESIDUE	1 ****	ASN
3	PRO3	30	RESIDUE	1 ****	PRO
4	GLU4	44	RESIDUE	1 ****	GLU
5	SER5	59	RESIDUE	1 ****	SER
6	ARG6	70	RESIDUE	1 ****	ARG
7	LEU7	94	RESIDUE	1 ****	LEU
8	ASP8	113	RESIDUE	1 ****	ASP
9	GLU9	125	RESIDUE	1 ****	GLU
10	HIS10	140	RESIDUE	1 ****	HIS
11	VAL11	157	RESIDUE	1 ****	VAL
12	GLN12	173	RESIDUE	1 ****	GLN
13	ARG13	190	RESIDUE	1 ****	ARG
14	VAL14	214	RESIDUE	1 ****	VAL
15	MET15	230	RESIDUE	1 ****	MET
16	ARG16	247	RESIDUE	1 ****	ARG
