@<TRIPOS>MOLECULE
11-13
260 261 16              
SMALL
USER_CHARGES
@<TRIPOS>ATOM
1	   N	1779.841	533.511	-1822.418	N.3	1	GLU1	-0.516	
2	  CA	1780.400	534.860	-1822.418	C.3	1	GLU1	0.040	
3	   C	1781.909	534.820	-1822.418	C.2	1	GLU1	0.537	
4	   O	1782.585	535.519	-1823.186	O.2	1	GLU1	-0.582	
5	  CB	1779.877	535.645	-1821.181	C.3	1	GLU1	0.056	
6	  CG	1780.352	537.130	-1821.070	C.3	1	GLU1	0.014	
7	  CD	1779.928	537.934	-1819.855	C.2	1	GLU1	0.805	
8	 OE1	1779.200	537.432	-1818.977	O.co2	1	GLU1	-0.819	
9	 OE2	1780.358	539.104	-1819.783	O.co2	1	GLU1	-0.819	
10	   H	1780.468	532.632	-1822.418	 H	1	GLU1	0.294	
11	  HA	1780.074	535.378	-1823.338	 H	1	GLU1	0.111	
12	 2HB	1780.166	535.114	-1820.251	 H	1	GLU1	-0.017	
13	 3HB	1778.770	535.635	-1821.168	 H	1	GLU1	-0.017	
14	 2HG	1780.042	537.715	-1821.951	 H	1	GLU1	-0.043	
15	 3HG	1781.452	537.197	-1821.041	 H	1	GLU1	-0.043	
16	   N	1782.514	534.034	-1821.593	N.am	2	ASN2	-0.416	
17	  CA	1783.973	533.996	-1821.593	C.3	2	ASN2	0.014	
18	   C	1784.505	533.640	-1822.961	C.2	2	ASN2	0.597	
19	   O	1785.419	534.270	-1823.490	O.2	2	ASN2	-0.568	
20	  CB	1784.465	532.972	-1820.528	C.3	2	ASN2	-0.204	
21	  CG	1784.002	533.196	-1819.085	C.2	2	ASN2	0.713	
22	 ND2	1784.596	534.111	-1818.367	N.pl3	2	ASN2	-0.919	
23	 OD1	1783.081	532.563	-1818.591	O.2	2	ASN2	-0.593	
24	   H	1781.986	533.455	-1820.956	 H	2	ASN2	0.272	
25	  HA	1784.351	535.006	-1821.347	 H	2	ASN2	0.105	
26	 2HB	1785.570	532.913	-1820.532	 H	2	ASN2	0.080	
27	 3HB	1784.136	531.954	-1820.814	 H	2	ASN2	0.080	
28	1HD2	1784.116	534.284	-1817.480	 H	2	ASN2	0.420	
29	2HD2	1785.298	534.683	-1818.836	 H	2	ASN2	0.420	
30	   N	1783.983	532.645	-1823.595	N.am	3	PRO3	-0.255	
31	  CA	1784.435	532.236	-1824.917	C.3	3	PRO3	-0.027	
32	   C	1784.037	533.259	-1825.994	C.2	3	PRO3	0.590	
33	   O	1784.860	533.642	-1826.825	O.2	3	PRO3	-0.575	
34	  CB	1783.731	530.881	-1825.086	C.3	3	PRO3	-0.007	
35	  CG	1782.447	531.033	-1824.256	C.3	3	PRO3	0.019	
36	  CD	1782.905	531.852	-1823.046	C.3	3	PRO3	0.019	
37	  HA	1785.521	532.116	-1824.931	 H	3	PRO3	0.064	
38	 2HB	1784.353	530.100	-1824.645	 H	3	PRO3	0.025	
39	 3HB	1783.532	530.632	-1826.131	 H	3	PRO3	0.025	
40	 2HG	1782.020	530.071	-1823.965	 H	3	PRO3	0.021	
41	 3HG	1781.710	531.604	-1824.823	 H	3	PRO3	0.021	
42	 2HD	1783.294	531.202	-1822.259	 H	3	PRO3	0.039	
43	 3HD	1782.109	532.488	-1822.653	 H	3	PRO3	0.039	
44	   N	1782.832	533.719	-1826.026	N.am	4	GLU4	-0.516	
45	  CA	1782.472	534.690	-1827.056	C.3	4	GLU4	0.040	
46	   C	1783.371	535.901	-1826.995	C.2	4	GLU4	0.537	
47	   O	1783.898	536.381	-1828.009	O.2	4	GLU4	-0.582	
48	  CB	1780.984	535.109	-1826.885	C.3	4	GLU4	0.056	
49	  CG	1780.436	536.113	-1827.951	C.3	4	GLU4	0.014	
50	  CD	1779.009	536.609	-1827.807	C.2	4	GLU4	0.805	
51	 OE1	1778.283	536.211	-1826.877	O.co2	4	GLU4	-0.819	
52	 OE2	1778.620	537.439	-1828.656	O.co2	4	GLU4	-0.819	
53	   H	1782.148	533.412	-1825.349	 H	4	GLU4	0.294	
54	  HA	1782.603	534.220	-1828.047	 H	4	GLU4	0.111	
55	 2HB	1780.831	535.549	-1825.879	 H	4	GLU4	-0.017	
56	 3HB	1780.336	534.211	-1826.892	 H	4	GLU4	-0.017	
57	 2HG	1780.517	535.698	-1828.969	 H	4	GLU4	-0.043	
58	 3HG	1781.024	537.045	-1827.962	 H	4	GLU4	-0.043	
59	   N	1783.599	536.454	-1825.851	N.am	5	SER5	-0.416	
60	  CA	1784.468	537.625	-1825.793	C.3	5	SER5	-0.025	
61	   C	1785.827	537.320	-1826.379	C.2	5	SER5	0.597	
62	   O	1786.374	538.073	-1827.184	O.2	5	SER5	-0.568	
63	  CB	1784.580	538.158	-1824.342	C.3	5	SER5	0.212	
64	  OG	1785.311	537.278	-1823.481	O.3	5	SER5	-0.655	
65	   H	1783.182	536.082	-1825.010	 H	5	SER5	0.272	
66	  HA	1784.019	538.415	-1826.422	 H	5	SER5	0.084	
67	 2HB	1783.580	538.351	-1823.909	 H	5	SER5	0.035	
68	 3HB	1785.085	539.143	-1824.345	 H	5	SER5	0.035	
69	  HG	1784.823	536.453	-1823.431	 H	5	SER5	0.428	
70	   N	1786.432	536.237	-1826.024	N.am	6	ILE6	-0.416	
71	  CA	1787.745	535.942	-1826.590	C.3	6	ILE6	-0.060	
72	   C	1787.688	535.904	-1828.098	C.2	6	ILE6	0.597	
73	   O	1788.522	536.492	-1828.802	O.2	6	ILE6	-0.568	
74	  CB	1788.345	534.606	-1825.991	C.3	6	ILE6	0.130	
75	 CG1	1788.365	534.544	-1824.429	C.3	6	ILE6	-0.043	
76	 CG2	1789.786	534.304	-1826.506	C.3	6	ILE6	-0.320	
77	 CD1	1788.634	533.155	-1823.815	C.3	6	ILE6	-0.066	
78	   H	1786.004	535.602	-1825.365	 H	6	ILE6	0.272	
79	  HA	1788.419	536.776	-1826.323	 H	6	ILE6	0.087	
80	  HB	1787.687	533.780	-1826.335	 H	6	ILE6	0.019	
81	2HG1	1787.382	534.863	-1824.034	 H	6	ILE6	0.024	
82	3HG1	1789.080	535.286	-1824.025	 H	6	ILE6	0.024	
83	1HG2	1789.845	534.211	-1827.604	 H	6	ILE6	0.088	
84	2HG2	1790.508	535.087	-1826.204	 H	6	ILE6	0.088	
85	3HG2	1790.176	533.342	-1826.127	 H	6	ILE6	0.088	
86	1HD1	1787.906	532.400	-1824.169	 H	6	ILE6	0.019	
87	2HD1	1789.645	532.776	-1824.050	 H	6	ILE6	0.019	
88	3HD1	1788.558	533.184	-1822.712	 H	6	ILE6	0.019	
89	   N	1786.742	535.241	-1828.672	N.am	7	LEU7	-0.416	
90	  CA	1786.687	535.205	-1830.131	C.3	7	LEU7	-0.052	
91	   C	1786.615	536.600	-1830.703	C.2	7	LEU7	0.597	
92	   O	1787.335	536.963	-1831.645	O.2	7	LEU7	-0.568	
93	  CB	1785.484	534.344	-1830.611	C.3	7	LEU7	-0.110	
94	  CG	1785.412	532.865	-1830.144	C.3	7	LEU7	0.353	
95	 CD1	1784.222	532.159	-1830.810	C.3	7	LEU7	-0.412	
96	 CD2	1786.705	532.086	-1830.436	C.3	7	LEU7	-0.412	
97	   H	1786.050	534.754	-1828.121	 H	7	LEU7	0.272	
98	  HA	1787.629	534.765	-1830.505	 H	7	LEU7	0.092	
99	 2HB	1785.461	534.360	-1831.718	 H	7	LEU7	0.046	
100	 3HB	1784.544	534.847	-1830.307	 H	7	LEU7	0.046	
101	  HG	1785.242	532.857	-1829.047	 H	7	LEU7	-0.036	
102	1HD1	1783.265	532.668	-1830.587	 H	7	LEU7	0.100	
103	2HD1	1784.321	532.119	-1831.911	 H	7	LEU7	0.100	
104	3HD1	1784.115	531.118	-1830.454	 H	7	LEU7	0.100	
105	1HD2	1786.981	532.116	-1831.506	 H	7	LEU7	0.100	
106	2HD2	1787.559	532.498	-1829.865	 H	7	LEU7	0.100	
107	3HD2	1786.624	531.024	-1830.140	 H	7	LEU7	0.100	
108	   N	1785.777	537.440	-1830.197	N.am	8	ASP8	-0.516	
109	  CA	1785.706	538.790	-1830.750	C.3	8	ASP8	0.038	
110	   C	1787.053	539.470	-1830.693	C.2	8	ASP8	0.537	
111	   O	1787.525	540.076	-1831.667	O.2	8	ASP8	-0.582	
112	  CB	1784.628	539.629	-1830.008	C.3	8	ASP8	-0.030	
113	  CG	1784.409	541.049	-1830.548	C.2	8	ASP8	0.799	
114	 OD1	1784.473	541.249	-1831.779	O.co2	8	ASP8	-0.801	
115	 OD2	1784.217	541.975	-1829.733	O.co2	8	ASP8	-0.801	
116	   H	1785.179	537.169	-1829.429	 H	8	ASP8	0.294	
117	  HA	1785.424	538.712	-1831.817	 H	8	ASP8	0.088	
118	 2HB	1784.885	539.712	-1828.936	 H	8	ASP8	-0.012	
119	 3HB	1783.649	539.123	-1830.041	 H	8	ASP8	-0.012	
120	   N	1787.733	539.420	-1829.597	N.am	9	GLU9	-0.516	
121	  CA	1789.035	540.078	-1829.542	C.3	9	GLU9	0.040	
122	   C	1789.953	539.551	-1830.618	C.2	9	GLU9	0.537	
123	   O	1790.617	540.306	-1831.344	O.2	9	GLU9	-0.582	
124	  CB	1789.669	539.871	-1828.137	C.3	9	GLU9	0.056	
125	  CG	1791.051	540.564	-1827.907	C.3	9	GLU9	0.014	
126	  CD	1791.753	540.350	-1826.579	C.2	9	GLU9	0.805	
127	 OE1	1791.232	539.659	-1825.683	O.co2	9	GLU9	-0.819	
128	 OE2	1792.872	540.889	-1826.448	O.co2	9	GLU9	-0.819	
129	   H	1787.370	538.933	-1828.790	 H	9	GLU9	0.294	
130	  HA	1788.893	541.160	-1829.717	 H	9	GLU9	0.111	
131	 2HB	1789.782	538.786	-1827.933	 H	9	GLU9	-0.017	
132	 3HB	1788.972	540.224	-1827.352	 H	9	GLU9	-0.017	
133	 2HG	1790.979	541.654	-1828.047	 H	9	GLU9	-0.043	
134	 3HG	1791.798	540.219	-1828.642	 H	9	GLU9	-0.043	
135	   N	1790.051	538.276	-1830.788	N.am	10	HIS10	-0.416	
136	  CA	1790.939	537.765	-1831.829	C.3	10	HIS10	-0.058	
137	   C	1790.571	538.330	-1833.179	C.2	10	HIS10	0.597	
138	   O	1791.423	538.795	-1833.951	O.2	10	HIS10	-0.568	
139	  CB	1790.775	536.236	-1831.824	C.3	10	HIS10	-0.007	
140	  CG	1792.061	535.527	-1831.516	C.2	10	HIS10	0.187	
141	 CD2	1792.443	535.191	-1830.224	C.2	10	HIS10	-0.221	
142	 ND1	1793.013	535.122	-1832.449	N.2	10	HIS10	-0.543	
143	 CE1	1793.920	534.564	-1831.626	C.2	10	HIS10	0.163	
144	 NE2	1793.658	534.560	-1830.291	N.pl3	10	HIS10	-0.280	
145	   H	1789.520	537.640	-1830.209	 H	10	HIS10	0.272	
146	  HA	1791.957	538.123	-1831.603	 H	10	HIS10	0.136	
147	 2HB	1790.410	535.870	-1832.804	 H	10	HIS10	0.037	
148	 3HB	1790.020	535.899	-1831.084	 H	10	HIS10	0.037	
149	 2HD	1791.857	535.406	-1829.334	 H	10	HIS10	0.186	
150	 1HE	1794.812	534.143	-1832.073	 H	10	HIS10	0.144	
151	 2HE	1794.225	534.183	-1829.518	 H	10	HIS10	0.334	
152	   N	1789.333	538.329	-1833.542	N.am	11	SER11	-0.416	
153	  CA	1788.979	538.875	-1834.849	C.3	11	SER11	-0.025	
154	   C	1789.443	540.307	-1834.980	C.2	11	SER11	0.597	
155	   O	1790.041	540.708	-1835.979	O.2	11	SER11	-0.568	
156	  CB	1787.457	538.744	-1835.107	C.3	11	SER11	0.212	
157	  OG	1786.674	539.604	-1834.272	O.3	11	SER11	-0.655	
158	   H	1788.620	537.955	-1832.932	 H	11	SER11	0.272	
159	  HA	1789.516	538.292	-1835.619	 H	11	SER11	0.084	
160	 2HB	1787.118	537.698	-1834.980	 H	11	SER11	0.035	
161	 3HB	1787.236	538.988	-1836.164	 H	11	SER11	0.035	
162	  HG	1786.820	539.332	-1833.363	 H	11	SER11	0.428	
163	   N	1789.206	541.132	-1834.018	N.am	12	GLN12	-0.416	
164	  CA	1789.654	542.515	-1834.146	C.3	12	GLN12	-0.003	
165	   C	1791.144	542.583	-1834.383	C.2	12	GLN12	0.597	
166	   O	1791.631	543.290	-1835.262	O.2	12	GLN12	-0.568	
167	  CB	1789.263	543.283	-1832.863	C.3	12	GLN12	-0.004	
168	  CG	1789.624	544.805	-1832.833	C.3	12	GLN12	-0.064	
169	  CD	1789.321	545.619	-1831.568	C.2	12	GLN12	0.695	
170	 NE2	1788.754	545.043	-1830.539	N.pl3	12	GLN12	-0.941	
171	 OE1	1789.623	546.800	-1831.491	O.2	12	GLN12	-0.609	
172	   H	1788.717	540.827	-1833.189	 H	12	GLN12	0.272	
173	  HA	1789.155	542.971	-1835.021	 H	12	GLN12	0.085	
174	 2HB	1789.739	542.783	-1831.994	 H	12	GLN12	0.017	
175	 3HB	1788.173	543.176	-1832.700	 H	12	GLN12	0.017	
176	 2HG	1789.146	545.326	-1833.683	 H	12	GLN12	0.035	
177	 3HG	1790.707	544.947	-1832.998	 H	12	GLN12	0.035	
178	1HE2	1788.647	545.637	-1829.716	 H	12	GLN12	0.425	
179	2HE2	1788.590	544.039	-1830.642	 H	12	GLN12	0.425	
180	   N	1791.929	541.876	-1833.642	N.am	13	ARG13	-0.348	
181	  CA	1793.369	541.941	-1833.873	C.3	13	ARG13	-0.264	
182	   C	1793.705	541.570	-1835.298	C.2	13	ARG13	0.734	
183	   O	1794.474	542.241	-1835.982	O.2	13	ARG13	-0.589	
184	  CB	1794.082	541.003	-1832.859	C.3	13	ARG13	-0.001	
185	  CG	1795.627	541.155	-1832.777	C.3	13	ARG13	0.039	
186	  CD	1796.254	540.168	-1831.779	C.3	13	ARG13	0.049	
187	  NE	1797.731	540.375	-1831.729	N.pl3	13	ARG13	-0.530	
188	  CZ	1798.579	539.683	-1830.973	C.cat	13	ARG13	0.808	
189	 NH1	1798.213	538.719	-1830.176	N.pl3	13	ARG13	-0.863	
190	 NH2	1799.838	539.982	-1831.030	N.pl3	13	ARG13	-0.863	
191	   H	1791.552	541.286	-1832.914	 H	13	ARG13	0.275	
192	  HA	1793.693	542.987	-1833.715	 H	13	ARG13	0.156	
193	 2HB	1793.815	539.952	-1833.097	 H	13	ARG13	0.033	
194	 3HB	1793.657	541.169	-1831.848	 H	13	ARG13	0.033	
195	 2HG	1795.875	542.200	-1832.498	 H	13	ARG13	0.029	
196	 3HG	1796.078	540.999	-1833.779	 H	13	ARG13	0.029	
197	 2HD	1796.009	539.128	-1832.088	 H	13	ARG13	0.069	
198	 3HD	1795.797	540.314	-1830.777	 H	13	ARG13	0.069	
199	  HE	1798.182	541.097	-1832.300	 H	13	ARG13	0.346	
200	1HH1	1797.208	538.533	-1830.179	 H	13	ARG13	0.448	
201	2HH1	1798.926	538.236	-1829.627	 H	13	ARG13	0.448	
202	1HH2	1800.106	540.740	-1831.661	 H	13	ARG13	0.448	
203	2HH2	1800.473	539.441	-1830.441	 H	13	ARG13	0.448	
204	   N	1793.169	540.515	-1835.812	N.am	14	VAL14	-0.416	
205	  CA	1793.494	540.155	-1837.189	C.3	14	VAL14	-0.087	
206	   C	1793.164	541.285	-1838.135	C.2	14	VAL14	0.597	
207	   O	1793.958	541.666	-1839.005	O.2	14	VAL14	-0.568	
208	  CB	1792.721	538.838	-1837.595	C.3	14	VAL14	0.299	
209	 CG1	1792.811	538.419	-1839.089	C.3	14	VAL14	-0.319	
210	 CG2	1793.153	537.586	-1836.795	C.3	14	VAL14	-0.319	
211	   H	1792.534	539.947	-1835.270	 H	14	VAL14	0.272	
212	  HA	1794.582	539.978	-1837.264	 H	14	VAL14	0.097	
213	  HB	1791.645	539.009	-1837.380	 H	14	VAL14	-0.030	
214	1HG1	1793.852	538.242	-1839.418	 H	14	VAL14	0.079	
215	2HG1	1792.238	537.496	-1839.301	 H	14	VAL14	0.079	
216	3HG1	1792.382	539.181	-1839.767	 H	14	VAL14	0.079	
217	1HG2	1793.066	537.745	-1835.704	 H	14	VAL14	0.079	
218	2HG2	1792.517	536.710	-1837.027	 H	14	VAL14	0.079	
219	3HG2	1794.201	537.296	-1837.000	 H	14	VAL14	0.079	
220	   N	1792.020	541.871	-1838.034	N.am	15	MET15	-0.416	
221	  CA	1791.700	542.964	-1838.948	C.3	15	MET15	-0.024	
222	   C	1792.730	544.063	-1838.860	C.2	15	MET15	0.597	
223	   O	1793.233	544.574	-1839.873	O.2	15	MET15	-0.568	
224	  CB	1790.278	543.510	-1838.639	C.3	15	MET15	0.034	
225	  CG	1789.116	542.512	-1838.831	C.3	15	MET15	0.002	
226	  SD	1787.542	543.378	-1838.717	S.3	15	MET15	-0.274	
227	  CE	1786.461	541.949	-1838.581	C.3	15	MET15	-0.054	
228	   H	1791.354	541.578	-1837.332	 H	15	MET15	0.272	
229	  HA	1791.725	542.576	-1839.983	 H	15	MET15	0.088	
230	 2HB	1790.076	544.388	-1839.282	 H	15	MET15	0.024	
231	 3HB	1790.243	543.903	-1837.603	 H	15	MET15	0.024	
232	 2HG	1789.159	541.726	-1838.053	 H	15	MET15	0.044	
233	 3HG	1789.179	541.996	-1839.807	 H	15	MET15	0.044	
234	 1HE	1786.604	541.261	-1839.432	 H	15	MET15	0.068	
235	 2HE	1786.670	541.397	-1837.647	 H	15	MET15	0.068	
236	 3HE	1785.403	542.265	-1838.564	 H	15	MET15	0.068	
237	   N	1793.099	544.484	-1837.698	N.am	16	ARG16	-0.348	
238	  CA	1794.095	545.548	-1837.614	C.3	16	ARG16	-0.264	
239	   C	1795.366	545.155	-1838.330	C.2	16	ARG16	0.734	
240	   O	1795.480	544.078	-1838.911	O.2	16	ARG16	-0.589	
241	  CB	1794.364	545.866	-1836.116	C.3	16	ARG16	-0.001	
242	  CG	1795.190	547.155	-1835.844	C.3	16	ARG16	0.039	
243	  CD	1795.439	547.375	-1834.342	C.3	16	ARG16	0.049	
244	  NE	1796.216	548.634	-1834.142	N.pl3	16	ARG16	-0.530	
245	  CZ	1796.607	549.116	-1832.966	C.cat	16	ARG16	0.808	
246	 NH1	1796.359	548.532	-1831.828	N.pl3	16	ARG16	-0.863	
247	 NH2	1797.272	550.229	-1832.948	N.pl3	16	ARG16	-0.863	
248	   H	1792.704	544.085	-1836.859	 H	16	ARG16	0.275	
249	  HA	1793.687	546.441	-1838.125	 H	16	ARG16	0.156	
250	 2HB	1794.861	544.990	-1835.649	 H	16	ARG16	0.033	
251	 3HB	1793.396	545.948	-1835.582	 H	16	ARG16	0.033	
252	 2HG	1794.660	548.026	-1836.281	 H	16	ARG16	0.029	
253	 3HG	1796.164	547.102	-1836.372	 H	16	ARG16	0.029	
254	 2HD	1795.988	546.500	-1833.929	 H	16	ARG16	0.069	
255	 3HD	1794.467	547.418	-1833.807	 H	16	ARG16	0.069	
256	  HE	1796.495	549.214	-1834.939	 H	16	ARG16	0.346	
257	1HH1	1795.833	547.659	-1831.912	 H	16	ARG16	0.448	
258	2HH1	1796.694	548.968	-1830.966	 H	16	ARG16	0.448	
259	1HH2	1797.457	550.671	-1833.850	 H	16	ARG16	0.448	
260	2HH2	1797.562	550.584	-1832.036	 H	16	ARG16	0.448	
@<TRIPOS>BOND
1 1 2 1
2 1 10 1
3 2 3 1
4 2 5 1
5 2 11 1
6 3 4 2
7 3 16 1
8 5 6 1
9 6 7 1
10 7 8 2
11 7 9 1
12 5 12 1
13 5 13 1
14 6 14 1
15 6 15 1
16 16 17 1
17 16 24 1
18 17 18 1
19 17 20 1
20 17 25 1
21 18 19 2
22 18 30 1
23 20 21 1
24 21 22 1
25 21 23 2
26 20 26 1
27 20 27 1
28 22 28 1
29 22 29 1
30 30 31 1
31 30 36 1
32 31 32 1
33 31 34 1
34 31 37 1
35 32 33 2
36 32 44 1
37 34 35 1
38 35 36 1
39 34 38 1
40 34 39 1
41 35 40 1
42 35 41 1
43 36 42 1
44 36 43 1
45 44 45 1
46 44 53 1
47 45 46 1
48 45 48 1
49 45 54 1
50 46 47 2
51 46 59 1
52 48 49 1
53 49 50 1
54 50 51 2
55 50 52 1
56 48 55 1
57 48 56 1
58 49 57 1
59 49 58 1
60 59 60 1
61 59 65 1
62 60 61 1
63 60 63 1
64 60 66 1
65 61 62 2
66 61 70 1
67 63 64 1
68 63 67 1
69 63 68 1
70 64 69 1
71 70 71 1
72 70 78 1
73 71 72 1
74 71 74 1
75 71 79 1
76 72 73 2
77 72 89 1
78 74 75 1
79 74 76 1
80 75 77 1
81 74 80 1
82 75 81 1
83 75 82 1
84 76 83 1
85 76 84 1
86 76 85 1
87 77 86 1
88 77 87 1
89 77 88 1
90 89 90 1
91 89 97 1
92 90 91 1
93 90 93 1
94 90 98 1
95 91 92 2
96 91 108 1
97 93 94 1
98 94 95 1
99 94 96 1
100 93 99 1
101 93 100 1
102 94 101 1
103 95 102 1
104 95 103 1
105 95 104 1
106 96 105 1
107 96 106 1
108 96 107 1
109 108 109 1
110 108 116 1
111 109 110 1
112 109 112 1
113 109 117 1
114 110 111 2
115 110 120 1
116 112 113 1
117 113 114 2
118 113 115 1
119 112 118 1
120 112 119 1
121 120 121 1
122 120 129 1
123 121 122 1
124 121 124 1
125 121 130 1
126 122 123 2
127 122 135 1
128 124 125 1
129 125 126 1
130 126 127 2
131 126 128 1
132 124 131 1
133 124 132 1
134 125 133 1
135 125 134 1
136 135 136 1
137 135 145 1
138 136 137 1
139 136 139 1
140 136 146 1
141 137 138 2
142 137 152 1
143 139 140 1
144 140 141 2
145 141 144 1
146 140 142 1
147 142 143 2
148 143 144 1
149 139 147 1
150 139 148 1
151 141 149 1
152 143 150 1
153 144 151 1
154 152 153 1
155 152 158 1
156 153 154 1
157 153 156 1
158 153 159 1
159 154 155 2
160 154 163 1
161 156 157 1
162 156 160 1
163 156 161 1
164 157 162 1
165 163 164 1
166 163 172 1
167 164 165 1
168 164 167 1
169 164 173 1
170 165 166 2
171 165 180 1
172 167 168 1
173 168 169 1
174 169 170 1
175 169 171 2
176 167 174 1
177 167 175 1
178 168 176 1
179 168 177 1
180 170 178 1
181 170 179 1
182 180 181 1
183 180 191 1
184 181 182 1
185 181 184 1
186 181 192 1
187 182 183 2
188 182 204 1
189 184 185 1
190 185 186 1
191 186 187 1
192 187 188 1
193 188 189 2
194 188 190 1
195 184 193 1
196 184 194 1
197 185 195 1
198 185 196 1
199 186 197 1
200 186 198 1
201 187 199 1
202 189 200 1
203 189 201 1
204 190 202 1
205 190 203 1
206 204 205 1
207 204 211 1
208 205 206 1
209 205 208 1
210 205 212 1
211 206 207 2
212 206 220 1
213 208 209 1
214 208 210 1
215 208 213 1
216 209 214 1
217 209 215 1
218 209 216 1
219 210 217 1
220 210 218 1
221 210 219 1
222 220 221 1
223 220 228 1
224 221 222 1
225 221 224 1
226 221 229 1
227 222 223 2
228 222 237 1
229 224 225 1
230 225 226 1
231 226 227 1
232 224 230 1
233 224 231 1
234 225 232 1
235 225 233 1
236 227 234 1
237 227 235 1
238 227 236 1
239 237 238 1
240 237 248 1
241 238 239 1
242 238 241 1
243 238 249 1
244 239 240 2
245 241 242 1
246 242 243 1
247 243 244 1
248 244 245 1
249 245 246 2
250 245 247 1
251 241 250 1
252 241 251 1
253 242 252 1
254 242 253 1
255 243 254 1
256 243 255 1
257 244 256 1
258 246 257 1
259 246 258 1
260 247 259 1
261 247 260 1
@<TRIPOS>SUBSTRUCTURE
1	GLU1	1	RESIDUE	1 ****	GLU
2	ASN2	16	RESIDUE	1 ****	ASN
3	PRO3	30	RESIDUE	1 ****	PRO
4	GLU4	44	RESIDUE	1 ****	GLU
5	SER5	59	RESIDUE	1 ****	SER
6	ILE6	70	RESIDUE	1 ****	ILE
7	LEU7	89	RESIDUE	1 ****	LEU
8	ASP8	108	RESIDUE	1 ****	ASP
9	GLU9	120	RESIDUE	1 ****	GLU
10	HIS10	135	RESIDUE	1 ****	HIS
11	SER11	152	RESIDUE	1 ****	SER
12	GLN12	163	RESIDUE	1 ****	GLN
13	ARG13	180	RESIDUE	1 ****	ARG
14	VAL14	204	RESIDUE	1 ****	VAL
15	MET15	220	RESIDUE	1 ****	MET
16	ARG16	237	RESIDUE	1 ****	ARG
