REMARK WARNING: 32 MAX_TORS EXCEEDED!!!
REMARK  67 active torsions:
REMARK  status: ('A' for Active; 'I' for Inactive)
REMARK    1  A    between atoms: N_1  and  CA_2 
REMARK    2  A    between atoms: CA_2  and  C_3 
REMARK    3  A    between atoms: CA_2  and  CB_5 
REMARK       I    between atoms: C_3  and  N_11 
REMARK    4  A    between atoms: CB_5  and  CG_6 
REMARK    5  A    between atoms: CG_6  and  CD_7 
REMARK    6  A    between atoms: N_11  and  CA_12 
REMARK    7  A    between atoms: CA_12  and  C_13 
REMARK    8  A    between atoms: CA_12  and  CB_15 
REMARK       I    between atoms: C_13  and  N_22 
REMARK    9  A    between atoms: CB_15  and  CG_16 
REMARK       I    between atoms: CG_16  and  ND2_17 
REMARK   10  A    between atoms: CA_23  and  C_24 
REMARK       I    between atoms: C_24  and  N_29 
REMARK   11  A    between atoms: N_29  and  CA_30 
REMARK   12  A    between atoms: CA_30  and  C_31 
REMARK   13  A    between atoms: CA_30  and  CB_33 
REMARK       I    between atoms: C_31  and  N_39 
REMARK   14  A    between atoms: CB_33  and  CG_34 
REMARK   15  A    between atoms: CG_34  and  CD_35 
REMARK   16  A    between atoms: N_39  and  CA_40 
REMARK   17  A    between atoms: CA_40  and  C_41 
REMARK   18  A    between atoms: CA_40  and  CB_43 
REMARK       I    between atoms: C_41  and  N_47 
REMARK   19  A    between atoms: CB_43  and  OG_44 
REMARK   20  A    between atoms: N_47  and  CA_48 
REMARK   21  A    between atoms: CA_48  and  C_49 
REMARK   22  A    between atoms: CA_48  and  CB_51 
REMARK       I    between atoms: C_49  and  N_56 
REMARK   23  A    between atoms: CB_51  and  CG1_52 
REMARK   24  A    between atoms: N_56  and  CA_57 
REMARK   25  A    between atoms: CA_57  and  C_58 
REMARK   26  A    between atoms: CA_57  and  CB_60 
REMARK       I    between atoms: C_58  and  N_65 
REMARK   27  A    between atoms: CB_60  and  CG_61 
REMARK   28  A    between atoms: N_65  and  CA_66 
REMARK   29  A    between atoms: CA_66  and  C_67 
REMARK   30  A    between atoms: CA_66  and  CB_69 
REMARK       I    between atoms: C_67  and  N_74 
REMARK   31  A    between atoms: CB_69  and  CG_70 
REMARK   32  A    between atoms: N_74  and  CA_75 
REMARK   33  A    between atoms: CA_75  and  C_76 
REMARK   34  A    between atoms: CA_75  and  CB_78 
REMARK       I    between atoms: C_76  and  N_84 
REMARK   35  A    between atoms: CB_78  and  CG_79 
REMARK   36  A    between atoms: CG_79  and  CD_80 
REMARK   37  A    between atoms: N_84  and  CA_85 
REMARK   38  A    between atoms: CA_85  and  C_86 
REMARK   39  A    between atoms: CA_85  and  CB_88 
REMARK       I    between atoms: C_86  and  N_96 
REMARK   40  A    between atoms: CB_88  and  CG_89 
REMARK   41  A    between atoms: N_96  and  CA_97 
REMARK   42  A    between atoms: CA_97  and  C_98 
REMARK   43  A    between atoms: CA_97  and  CB_100 
REMARK       I    between atoms: C_98  and  N_104 
REMARK   44  A    between atoms: N_104  and  CA_105 
REMARK   45  A    between atoms: CA_105  and  C_106 
REMARK   46  A    between atoms: CA_105  and  CB_108 
REMARK       I    between atoms: C_106  and  N_113 
REMARK   47  A    between atoms: CB_108  and  CG_109 
REMARK   48  A    between atoms: N_113  and  CA_114 
REMARK   49  A    between atoms: CA_114  and  C_115 
REMARK   50  A    between atoms: CA_114  and  CB_117 
REMARK       I    between atoms: C_115  and  N_130 
REMARK   51  A    between atoms: CB_117  and  CG_118 
REMARK   52  A    between atoms: CG_118  and  CD_119 
REMARK   53  A    between atoms: CD_119  and  NE_120 
REMARK       I    between atoms: NE_120  and  CZ_121 
REMARK       I    between atoms: CZ_121  and  NH1_122 
REMARK       I    between atoms: CZ_121  and  NH2_123 
REMARK   54  A    between atoms: N_130  and  CA_131 
REMARK   55  A    between atoms: CA_131  and  C_132 
REMARK   56  A    between atoms: CA_131  and  CB_134 
REMARK       I    between atoms: C_132  and  N_138 
REMARK   57  A    between atoms: N_138  and  CA_139 
REMARK   58  A    between atoms: CA_139  and  C_140 
REMARK   59  A    between atoms: CA_139  and  CB_142 
REMARK       I    between atoms: C_140  and  N_147 
REMARK   60  A    between atoms: CB_142  and  CG_143 
REMARK   61  A    between atoms: CG_143  and  SD_144 
REMARK   62  A    between atoms: N_147  and  CA_148 
REMARK   63  A    between atoms: CA_148  and  C_149 
REMARK   64  A    between atoms: CA_148  and  CB_151 
REMARK   65  A    between atoms: CB_151  and  CG_152 
REMARK   66  A    between atoms: CG_152  and  CD_153 
REMARK   67  A    between atoms: CD_153  and  NE_154 
REMARK       I    between atoms: NE_154  and  CZ_155 
REMARK       I    between atoms: CZ_155  and  NH1_156 
ROOT
ATOM      1  C   GLU d   9    1905.069 576.576-1955.040  0.00  0.00     0.241 C 
ATOM      2  O   GLU d   9    1905.732 577.331-1955.765  0.00  0.00    -0.271 OA
ATOM      3  N   HIS d  10    1905.166 575.301-1955.210  0.00  0.00    -0.346 N 
ATOM      4  H   HIS d  10    1904.635 574.665-1954.632  0.00  0.00     0.163 HD
ENDROOT
BRANCH   1   5
ATOM      5  CA  GLU d   9    1904.150 577.103-1953.964  0.00  0.00     0.177 C 
BRANCH   5   6
ATOM      6  N   GLU d   9    1902.848 576.445-1954.020  0.00  0.00    -0.346 N 
ATOM      7  C   ASP d   8    1902.168 576.495-1955.115  0.00  0.00     0.241 C 
ATOM      8  O   ASP d   8    1902.641 577.100-1956.090  0.00  0.00    -0.271 OA
ATOM      9  H   GLU d   9    1902.484 575.958-1953.213  0.00  0.00     0.163 HD
BRANCH   7  10
ATOM     10  CA  ASP d   8    1900.822 575.815-1955.172  0.00  0.00     0.186 C 
BRANCH  10  11
ATOM     11  N   ASP d   8    1900.892 574.465-1954.619  0.00  0.00    -0.346 N 
ATOM     12  C   LEU d   7    1901.730 573.625-1955.125  0.00  0.00     0.241 C 
ATOM     13  O   LEU d   7    1902.450 573.988-1956.067  0.00  0.00    -0.271 OA
ATOM     14  H   ASP d   8    1900.294 574.194-1953.852  0.00  0.00     0.163 HD
BRANCH  12  15
ATOM     15  CA  LEU d   7    1901.802 572.230-1954.553  0.00  0.00     0.177 C 
BRANCH  15  16
ATOM     16  N   LEU d   7    1901.857 572.266-1953.094  0.00  0.00    -0.346 N 
ATOM     17  C   ILE d   6    1902.803 572.929-1952.521  0.00  0.00     0.241 C 
ATOM     18  O   ILE d   6    1903.638 573.517-1953.225  0.00  0.00    -0.271 OA
ATOM     19  H   LEU d   7    1901.165 571.778-1952.543  0.00  0.00     0.163 HD
BRANCH  17  20
ATOM     20  CA  ILE d   6    1902.860 572.967-1951.013  0.00  0.00     0.180 C 
BRANCH  20  21
ATOM     21  N   ILE d   6    1901.547 573.262-1950.447  0.00  0.00    -0.346 N 
ATOM     22  C   SER d   5    1900.942 574.345-1950.801  0.00  0.00     0.243 C 
ATOM     23  O   SER d   5    1901.489 575.098-1951.606  0.00  0.00    -0.271 OA
ATOM     24  H   ILE d   6    1901.119 572.627-1949.788  0.00  0.00     0.163 HD
BRANCH  22  25
ATOM     25  CA  SER d   5    1899.583 574.650-1950.215  0.00  0.00     0.200 C 
BRANCH  25  26
ATOM     26  N   SER d   5    1898.714 573.479-1950.274  0.00  0.00    -0.344 N 
ATOM     27  C   GLU d   4    1898.486 572.926-1951.417  0.00  0.00     0.241 C 
ATOM     28  O   GLU d   4    1899.013 573.406-1952.432  0.00  0.00    -0.271 OA
ATOM     29  H   SER d   5    1898.297 573.107-1949.432  0.00  0.00     0.163 HD
BRANCH  27  30
ATOM     30  CA  GLU d   4    1897.587 571.715-1951.478  0.00  0.00     0.177 C 
BRANCH  30  31
ATOM     31  N   GLU d   4    1897.947 570.744-1950.448  0.00  0.00    -0.346 N 
ATOM     32  C   PRO d   3    1899.152 570.284-1950.416  0.00  0.00     0.241 C 
ATOM     33  O   PRO d   3    1899.975 570.667-1951.248  0.00  0.00    -0.271 OA
ATOM     34  H   GLU d   4    1897.263 570.437-1949.772  0.00  0.00     0.163 HD
BRANCH  32  35
ATOM     35  CA  PRO d   3    1899.550 569.260-1949.339  0.00  0.00     0.179 C 
ATOM     36  N   PRO d   3    1899.098 569.670-1948.018  0.00  0.00    -0.337 N 
ATOM     37  C   ASN d   2    1899.620 570.665-1947.384  0.00  0.00     0.243 C 
ATOM     38  CD  PRO d   3    1898.020 568.877-1947.469  0.00  0.00     0.127 C 
ATOM     39  O   ASN d   2    1900.535 571.295-1947.912  0.00  0.00    -0.271 OA
ATOM     40  CG  PRO d   3    1897.562 568.058-1948.678  0.00  0.00     0.022 C 
ATOM     41  CB  PRO d   3    1898.846 567.906-1949.509  0.00  0.00     0.037 C 
BRANCH  37  42
ATOM     42  CA  ASN d   2    1899.089 571.020-1946.015  0.00  0.00     0.185 C 
BRANCH  42  43
ATOM     43  N   ASN d   2    1897.629 571.059-1946.015  0.00  0.00    -0.346 N 
ATOM     44  C   GLU d   1    1897.025 571.845-1946.840  0.00  0.00     0.242 C 
ATOM     45  O   GLU d   1    1897.700 572.544-1947.609  0.00  0.00    -0.271 OA
ATOM     46  H   ASN d   2    1897.101 570.479-1945.379  0.00  0.00     0.163 HD
BRANCH  44  47
ATOM     47  CA  GLU d   1    1895.516 571.885-1946.840  0.00  0.00     0.191 C 
BRANCH  47  48
ATOM     48  N   GLU d   1    1894.957 570.536-1946.840  0.00  0.00    -0.326 NA
ATOM     49  H   GLU d   1    1895.583 569.657-1946.840  0.00  0.00     0.180 HD
ENDBRANCH  47  48
BRANCH  47  50
ATOM     50  CB  GLU d   1    1894.993 572.670-1945.603  0.00  0.00     0.047 C 
BRANCH  50  51
ATOM     51  CG  GLU d   1    1895.468 574.155-1945.492  0.00  0.00     0.116 C 
BRANCH  51  52
ATOM     52  CD  GLU d   1    1895.044 574.959-1944.277  0.00  0.00     0.172 C 
ATOM     53  OE1 GLU d   1    1894.316 574.457-1943.399  0.00  0.00    -0.648 OA
ATOM     54  OE2 GLU d   1    1895.474 576.129-1944.205  0.00  0.00    -0.648 OA
ENDBRANCH  51  52
ENDBRANCH  50  51
ENDBRANCH  47  50
ENDBRANCH  44  47
ENDBRANCH  42  43
BRANCH  42  55
ATOM     55  CB  ASN d   2    1899.580 569.997-1944.951  0.00  0.00     0.137 C 
BRANCH  55  56
ATOM     56  CG  ASN d   2    1899.117 570.221-1943.507  0.00  0.00     0.217 C 
ATOM     57  ND2 ASN d   2    1899.712 571.136-1942.789  0.00  0.00    -0.370 N 
ATOM     58 21HD ASN d   2    1899.231 571.309-1941.903  0.00  0.00     0.159 HD
ATOM     59 22HD ASN d   2    1900.413 571.708-1943.258  0.00  0.00     0.159 HD
ATOM     60  OD1 ASN d   2    1898.196 569.587-1943.013  0.00  0.00    -0.274 OA
ENDBRANCH  55  56
ENDBRANCH  42  55
ENDBRANCH  37  42
ENDBRANCH  32  35
ENDBRANCH  30  31
BRANCH  30  61
ATOM     61  CB  GLU d   4    1896.099 572.134-1951.308  0.00  0.00     0.045 C 
BRANCH  61  62
ATOM     62  CG  GLU d   4    1895.551 573.137-1952.374  0.00  0.00     0.116 C 
BRANCH  62  63
ATOM     63  CD  GLU d   4    1894.124 573.634-1952.230  0.00  0.00     0.172 C 
ATOM     64  OE1 GLU d   4    1893.398 573.236-1951.299  0.00  0.00    -0.648 OA
ATOM     65  OE2 GLU d   4    1893.735 574.463-1953.078  0.00  0.00    -0.648 OA
ENDBRANCH  62  63
ENDBRANCH  61  62
ENDBRANCH  30  61
ENDBRANCH  27  30
ENDBRANCH  25  26
BRANCH  25  66
ATOM     66  CB  SER d   5    1899.695 575.182-1948.765  0.00  0.00     0.199 C 
BRANCH  66  67
ATOM     67  OG  SER d   5    1900.427 574.303-1947.904  0.00  0.00    -0.398 OA
ATOM     68  HG  SER d   5    1899.938 573.478-1947.853  0.00  0.00     0.209 HD
ENDBRANCH  66  67
ENDBRANCH  25  66
ENDBRANCH  22  25
ENDBRANCH  20  21
BRANCH  20  69
ATOM     69  CB  ILE d   6    1903.460 571.630-1950.413  0.00  0.00     0.013 C 
ATOM     70  CG2 ILE d   6    1904.901 571.329-1950.928  0.00  0.00     0.012 C 
BRANCH  69  71
ATOM     71  CG1 ILE d   6    1903.480 571.569-1948.852  0.00  0.00     0.002 C 
ATOM     72  CD1 ILE d   6    1903.750 570.179-1948.237  0.00  0.00     0.005 C 
ENDBRANCH  69  71
ENDBRANCH  20  69
ENDBRANCH  17  20
ENDBRANCH  15  16
BRANCH  15  73
ATOM     73  CB  LEU d   7    1900.599 571.369-1955.033  0.00  0.00     0.038 C 
BRANCH  73  74
ATOM     74  CG  LEU d   7    1900.527 569.890-1954.567  0.00  0.00    -0.020 C 
ATOM     75  CD1 LEU d   7    1899.337 569.184-1955.232  0.00  0.00     0.009 C 
ATOM     76  CD2 LEU d   7    1901.821 569.111-1954.858  0.00  0.00     0.009 C 
ENDBRANCH  73  74
ENDBRANCH  15  73
ENDBRANCH  12  15
ENDBRANCH  10  11
BRANCH  10  77
ATOM     77  CB  ASP d   8    1899.743 576.653-1954.431  0.00  0.00     0.147 C 
BRANCH  77  78
ATOM     78  CG  ASP d   8    1899.524 578.074-1954.971  0.00  0.00     0.175 C 
ATOM     79  OD1 ASP d   8    1899.588 578.274-1956.201  0.00  0.00    -0.648 OA
ATOM     80  OD2 ASP d   8    1899.332 579.000-1954.155  0.00  0.00    -0.648 OA
ENDBRANCH  77  78
ENDBRANCH  10  77
ENDBRANCH   7  10
ENDBRANCH   5   6
BRANCH   5  81
ATOM     81  CB  GLU d   9    1904.784 576.895-1952.559  0.00  0.00     0.045 C 
BRANCH  81  82
ATOM     82  CG  GLU d   9    1906.166 577.588-1952.329  0.00  0.00     0.116 C 
BRANCH  82  83
ATOM     83  CD  GLU d   9    1906.868 577.374-1951.001  0.00  0.00     0.172 C 
ATOM     84  OE1 GLU d   9    1906.346 576.683-1950.105  0.00  0.00    -0.648 OA
ATOM     85  OE2 GLU d   9    1907.987 577.913-1950.869  0.00  0.00    -0.648 OA
ENDBRANCH  82  83
ENDBRANCH  81  82
ENDBRANCH   5  81
ENDBRANCH   1   5
BRANCH   3  86
ATOM     86  CA  HIS d  10    1906.054 574.790-1956.250  0.00  0.00     0.182 C 
BRANCH  86  87
ATOM     87  C   HIS d  10    1905.687 575.355-1957.601  0.00  0.00     0.241 C 
ATOM     88  O   HIS d  10    1906.539 575.820-1958.373  0.00  0.00    -0.271 OA
ATOM     89  N   VAL d  11    1904.449 575.354-1957.964  0.00  0.00    -0.346 N 
ATOM     90  H   VAL d  11    1903.736 574.980-1957.354  0.00  0.00     0.163 HD
BRANCH  89  91
ATOM     91  CA  VAL d  11    1904.094 575.900-1959.271  0.00  0.00     0.180 C 
BRANCH  91  92
ATOM     92  C   VAL d  11    1904.558 577.331-1959.403  0.00  0.00     0.241 C 
ATOM     93  O   VAL d  11    1905.159 577.736-1960.406  0.00  0.00    -0.271 OA
ATOM     94  N   LEU d  12    1904.320 578.156-1958.441  0.00  0.00    -0.346 N 
ATOM     95  H   LEU d  12    1903.831 577.850-1957.612  0.00  0.00     0.163 HD
BRANCH  94  96
ATOM     96  CA  LEU d  12    1904.769 579.539-1958.568  0.00  0.00     0.177 C 
BRANCH  96  97
ATOM     97  C   LEU d  12    1906.259 579.604-1958.805  0.00  0.00     0.241 C 
ATOM     98  O   LEU d  12    1906.753 580.318-1959.691  0.00  0.00    -0.271 OA
ATOM     99  N   ARG d  13    1907.042 578.896-1958.063  0.00  0.00    -0.346 N 
ATOM    100  H   ARG d  13    1906.664 578.307-1957.335  0.00  0.00     0.163 HD
BRANCH  99 101
ATOM    101  CA  ARG d  13    1908.482 578.959-1958.293  0.00  0.00     0.176 C 
BRANCH 101 102
ATOM    102  C   ARG d  13    1908.819 578.587-1959.718  0.00  0.00     0.241 C 
ATOM    103  O   ARG d  13    1909.589 579.257-1960.401  0.00  0.00    -0.271 OA
ATOM    104  N   VAL d  14    1908.281 577.533-1960.232  0.00  0.00    -0.346 N 
ATOM    105  H   VAL d  14    1907.645 576.966-1959.690  0.00  0.00     0.163 HD
BRANCH 104 106
ATOM    106  CA  VAL d  14    1908.606 577.173-1961.609  0.00  0.00     0.180 C 
BRANCH 106 107
ATOM    107  C   VAL d  14    1908.279 578.303-1962.555  0.00  0.00     0.241 C 
ATOM    108  O   VAL d  14    1909.074 578.683-1963.425  0.00  0.00    -0.271 OA
ATOM    109  N   MET d  15    1907.135 578.892-1962.455  0.00  0.00    -0.346 N 
ATOM    110  H   MET d  15    1906.469 578.600-1961.753  0.00  0.00     0.163 HD
BRANCH 109 111
ATOM    111  CA  MET d  15    1906.818 579.984-1963.369  0.00  0.00     0.177 C 
BRANCH 111 112
ATOM    112  C   MET d  15    1907.850 581.082-1963.281  0.00  0.00     0.241 C 
ATOM    113  O   MET d  15    1908.354 581.592-1964.294  0.00  0.00    -0.271 OA
ATOM    114  N   ARG d  16    1908.219 581.503-1962.119  0.00  0.00    -0.347 N 
ATOM    115  H   ARG d  16    1907.823 581.104-1961.280  0.00  0.00     0.163 HD
BRANCH 114 116
ATOM    116  CA  ARG d  16    1909.218 582.565-1962.035  0.00  0.00     0.162 C 
BRANCH 116 117
ATOM    117  C   ARG d  16    1910.488 582.169-1962.750  0.00  0.00     0.219 C 
ATOM    118  O   ARG d  16    1910.600 581.093-1963.332  0.00  0.00    -0.287 OA
ENDBRANCH 116 117
BRANCH 116 119
ATOM    119  CB  ARG d  16    1909.486 582.883-1960.536  0.00  0.00     0.035 C 
BRANCH 119 120
ATOM    120  CG  ARG d  16    1910.314 584.170-1960.263  0.00  0.00     0.023 C 
BRANCH 120 121
ATOM    121  CD  ARG d  16    1910.563 584.389-1958.762  0.00  0.00     0.138 C 
BRANCH 121 122
ATOM    122  NE  ARG d  16    1911.342 585.647-1958.561  0.00  0.00    -0.227 N 
ATOM    123  CZ  ARG d  16    1911.733 586.128-1957.385  0.00  0.00     0.665 C 
ATOM    124  NH1 ARG d  16    1911.484 585.545-1956.247  0.00  0.00    -0.235 N 
ATOM    125  NH2 ARG d  16    1912.400 587.240-1957.367  0.00  0.00    -0.235 N 
ATOM    126 11HH ARG d  16    1910.957 584.673-1956.331  0.00  0.00     0.174 HD
ATOM    127 12HH ARG d  16    1911.819 585.980-1955.386  0.00  0.00     0.174 HD
ATOM    128 21HH ARG d  16    1912.586 587.682-1958.269  0.00  0.00     0.174 HD
ATOM    129 22HH ARG d  16    1912.690 587.595-1956.454  0.00  0.00     0.174 HD
ATOM    130  HE  ARG d  16    1911.622 586.227-1959.358  0.00  0.00     0.177 HD
ENDBRANCH 121 122
ENDBRANCH 120 121
ENDBRANCH 119 120
ENDBRANCH 116 119
ENDBRANCH 114 116
ENDBRANCH 111 112
BRANCH 111 131
ATOM    131  CB  MET d  15    1905.397 580.533-1963.061  0.00  0.00     0.045 C 
BRANCH 131 132
ATOM    132  CG  MET d  15    1904.233 579.537-1963.253  0.00  0.00     0.076 C 
BRANCH 132 133
ATOM    133  SD  MET d  15    1902.661 580.407-1963.140  0.00  0.00    -0.173 SA
ATOM    134  CE  MET d  15    1901.577 578.979-1963.003  0.00  0.00     0.089 C 
ENDBRANCH 132 133
ENDBRANCH 131 132
ENDBRANCH 111 131
ENDBRANCH 109 111
ENDBRANCH 106 107
BRANCH 106 135
ATOM    135  CB  VAL d  14    1907.832 575.857-1962.016  0.00  0.00     0.009 C 
ATOM    136  CG1 VAL d  14    1907.921 575.438-1963.510  0.00  0.00     0.012 C 
ATOM    137  CG2 VAL d  14    1908.260 574.604-1961.215  0.00  0.00     0.012 C 
ENDBRANCH 106 135
ENDBRANCH 104 106
ENDBRANCH 101 102
BRANCH 101 138
ATOM    138  CB  ARG d  13    1909.193 578.019-1957.278  0.00  0.00     0.036 C 
BRANCH 138 139
ATOM    139  CG  ARG d  13    1910.738 578.170-1957.196  0.00  0.00     0.023 C 
BRANCH 139 140
ATOM    140  CD  ARG d  13    1911.362 577.181-1956.198  0.00  0.00     0.138 C 
BRANCH 140 141
ATOM    141  NE  ARG d  13    1912.840 577.386-1956.146  0.00  0.00    -0.227 N 
ATOM    142  CZ  ARG d  13    1913.686 576.693-1955.390  0.00  0.00     0.665 C 
ATOM    143  NH1 ARG d  13    1913.318 575.729-1954.593  0.00  0.00    -0.235 N 
ATOM    144  NH2 ARG d  13    1914.946 576.989-1955.446  0.00  0.00    -0.235 N 
ATOM    145 11HH ARG d  13    1912.313 575.545-1954.596  0.00  0.00     0.174 HD
ATOM    146 12HH ARG d  13    1914.030 575.245-1954.043  0.00  0.00     0.174 HD
ATOM    147 21HH ARG d  13    1915.216 577.746-1956.077  0.00  0.00     0.174 HD
ATOM    148 22HH ARG d  13    1915.580 576.447-1954.857  0.00  0.00     0.174 HD
ATOM    149  HE  ARG d  13    1913.293 578.107-1956.717  0.00  0.00     0.177 HD
ENDBRANCH 140 141
ENDBRANCH 139 140
ENDBRANCH 138 139
ENDBRANCH 101 138
ENDBRANCH  99 101
ENDBRANCH  96  97
BRANCH  96 150
ATOM    150  CB  LEU d  12    1904.371 580.361-1957.309  0.00  0.00     0.038 C 
BRANCH 150 151
ATOM    151  CG  LEU d  12    1902.867 580.433-1956.929  0.00  0.00    -0.020 C 
ATOM    152  CD1 LEU d  12    1902.669 581.374-1955.732  0.00  0.00     0.009 C 
ATOM    153  CD2 LEU d  12    1901.980 580.889-1958.099  0.00  0.00     0.009 C 
ENDBRANCH 150 151
ENDBRANCH  96 150
ENDBRANCH  94  96
ENDBRANCH  91  92
BRANCH  91 154
ATOM    154  CB  VAL d  11    1902.533 575.793-1959.491  0.00  0.00     0.009 C 
ATOM    155  CG1 VAL d  11    1901.964 576.497-1960.754  0.00  0.00     0.012 C 
ATOM    156  CG2 VAL d  11    1902.009 574.338-1959.565  0.00  0.00     0.012 C 
ENDBRANCH  91 154
ENDBRANCH  89  91
ENDBRANCH  86  87
BRANCH  86 157
ATOM    157  CB  HIS d  10    1905.890 573.261-1956.246  0.00  0.00     0.095 C 
BRANCH 157 158
ATOM    158  CG  HIS d  10    1907.176 572.551-1955.938  0.00  0.00     0.053 A 
ATOM    159  CD2 HIS d  10    1907.557 572.216-1954.645  0.00  0.00     0.116 A 
ATOM    160  NE2 HIS d  10    1908.772 571.584-1954.712  0.00  0.00    -0.359 N 
ATOM    161  CE1 HIS d  10    1909.035 571.587-1956.047  0.00  0.00     0.207 A 
ATOM    162  2HE HIS d  10    1909.339 571.207-1953.938  0.00  0.00     0.166 HD
ATOM    163  ND1 HIS d  10    1908.128 572.146-1956.870  0.00  0.00    -0.247 NA
ENDBRANCH 157 158
ENDBRANCH  86 157
ENDBRANCH   3  86
TORSDOF 67
