@<TRIPOS>MOLECULE
4-10
274 277 16              
SMALL
USER_CHARGES
@<TRIPOS>ATOM
1	   N	606.395	148.506	-552.965	N.3	1	GLU1	-0.516	
2	  CA	606.954	149.855	-552.965	C.3	1	GLU1	0.040	
3	   C	608.463	149.815	-552.965	C.2	1	GLU1	0.537	
4	   O	609.138	150.514	-553.734	O.2	1	GLU1	-0.582	
5	  CB	606.431	150.640	-551.728	C.3	1	GLU1	0.056	
6	  CG	606.906	152.125	-551.617	C.3	1	GLU1	0.014	
7	  CD	606.482	152.929	-550.402	C.2	1	GLU1	0.805	
8	 OE1	605.754	152.427	-549.524	O.co2	1	GLU1	-0.819	
9	 OE2	606.912	154.099	-550.330	O.co2	1	GLU1	-0.819	
10	   H	607.022	147.627	-552.965	 H	1	GLU1	0.294	
11	  HA	606.628	150.373	-553.885	 H	1	GLU1	0.111	
12	 2HB	606.720	150.109	-550.798	 H	1	GLU1	-0.017	
13	 3HB	605.324	150.630	-551.715	 H	1	GLU1	-0.017	
14	 2HG	606.596	152.710	-552.498	 H	1	GLU1	-0.043	
15	 3HG	608.006	152.192	-551.588	 H	1	GLU1	-0.043	
16	   N	609.067	149.029	-552.140	N.am	2	ASN2	-0.416	
17	  CA	610.526	148.991	-552.140	C.3	2	ASN2	0.014	
18	   C	611.058	148.635	-553.509	C.2	2	ASN2	0.597	
19	   O	611.973	149.266	-554.037	O.2	2	ASN2	-0.568	
20	  CB	611.019	147.968	-551.076	C.3	2	ASN2	-0.204	
21	  CG	610.556	148.191	-549.632	C.2	2	ASN2	0.713	
22	 ND2	611.150	149.106	-548.914	N.pl3	2	ASN2	-0.919	
23	 OD1	609.635	147.558	-549.138	O.2	2	ASN2	-0.593	
24	   H	608.539	148.449	-551.503	 H	2	ASN2	0.272	
25	  HA	610.904	150.000	-551.895	 H	2	ASN2	0.105	
26	 2HB	612.123	147.909	-551.079	 H	2	ASN2	0.080	
27	 3HB	610.690	146.949	-551.361	 H	2	ASN2	0.080	
28	1HD2	610.669	149.279	-548.028	 H	2	ASN2	0.420	
29	2HD2	611.852	149.678	-549.383	 H	2	ASN2	0.420	
30	   N	610.536	147.640	-554.143	N.am	3	PRO3	-0.255	
31	  CA	610.988	147.231	-555.464	C.3	3	PRO3	-0.027	
32	   C	610.590	148.254	-556.541	C.2	3	PRO3	0.590	
33	   O	611.413	148.637	-557.373	O.2	3	PRO3	-0.575	
34	  CB	610.284	145.876	-555.634	C.3	3	PRO3	-0.007	
35	  CG	609.001	146.028	-554.804	C.3	3	PRO3	0.019	
36	  CD	609.458	146.847	-553.594	C.3	3	PRO3	0.019	
37	  HA	612.074	147.111	-555.478	 H	3	PRO3	0.064	
38	 2HB	610.907	145.095	-555.193	 H	3	PRO3	0.025	
39	 3HB	610.086	145.628	-556.679	 H	3	PRO3	0.025	
40	 2HG	608.574	145.066	-554.513	 H	3	PRO3	0.021	
41	 3HG	608.263	146.599	-555.371	 H	3	PRO3	0.021	
42	 2HD	609.848	146.197	-552.806	 H	3	PRO3	0.039	
43	 3HD	608.662	147.482	-553.201	 H	3	PRO3	0.039	
44	   N	609.385	148.714	-556.574	N.am	4	TRP4	-0.416	
45	  CA	609.025	149.685	-557.603	C.3	4	TRP4	-0.027	
46	   C	609.924	150.897	-557.542	C.2	4	TRP4	0.597	
47	   O	610.446	151.372	-558.549	O.2	4	TRP4	-0.568	
48	  CB	607.546	150.117	-557.400	C.3	4	TRP4	-0.005	
49	  CG	606.517	149.006	-557.629	C.2	4	TRP4	-0.141	
50	 CD1	605.931	148.207	-556.626	C.2	4	TRP4	-0.164	
51	 CD2	606.041	148.516	-558.828	C.2	4	TRP4	0.124	
52	 CE2	605.172	147.434	-558.541	C.2	4	TRP4	0.138	
53	 CE3	606.302	148.895	-560.170	C.2	4	TRP4	-0.239	
54	 NE1	605.087	147.222	-557.173	N.pl3	4	TRP4	-0.342	
55	 CZ2	604.550	146.730	-559.594	C.2	4	TRP4	-0.260	
56	 CZ3	605.670	148.189	-561.193	C.2	4	TRP4	-0.197	
57	 CH2	604.804	147.123	-560.911	C.2	4	TRP4	-0.113	
58	   H	608.701	148.407	-555.897	 H	4	TRP4	0.272	
59	  HA	609.156	149.222	-558.599	 H	4	TRP4	0.112	
60	 2HB	607.294	150.951	-558.081	 H	4	TRP4	0.034	
61	 3HB	607.409	150.541	-556.385	 H	4	TRP4	0.034	
62	 1HD	606.147	148.311	-555.570	 H	4	TRP4	0.206	
63	 1HE	604.567	146.486	-556.682	 H	4	TRP4	0.341	
64	 3HE	606.974	149.711	-560.397	 H	4	TRP4	0.170	
65	 2HZ	603.888	145.903	-559.381	 H	4	TRP4	0.157	
66	 3HZ	605.852	148.470	-562.220	 H	4	TRP4	0.145	
67	 2HH	604.326	146.598	-561.723	 H	4	TRP4	0.142	
68	   N	610.152	151.451	-556.399	N.am	5	SER5	-0.416	
69	  CA	611.021	152.623	-556.342	C.3	5	SER5	-0.025	
70	   C	612.380	152.317	-556.928	C.2	5	SER5	0.597	
71	   O	612.926	153.070	-557.734	O.2	5	SER5	-0.568	
72	  CB	611.133	153.156	-554.892	C.3	5	SER5	0.212	
73	  OG	611.865	152.277	-554.031	O.3	5	SER5	-0.655	
74	   H	609.736	151.079	-555.557	 H	5	SER5	0.272	
75	  HA	610.571	153.412	-556.971	 H	5	SER5	0.084	
76	 2HB	610.133	153.349	-554.458	 H	5	SER5	0.035	
77	 3HB	611.638	154.142	-554.895	 H	5	SER5	0.035	
78	  HG	611.377	151.452	-553.979	 H	5	SER5	0.428	
79	   N	612.985	151.235	-556.573	N.am	6	ILE6	-0.416	
80	  CA	614.298	150.940	-557.140	C.3	6	ILE6	-0.060	
81	   C	614.240	150.901	-558.648	C.2	6	ILE6	0.597	
82	   O	615.074	151.489	-559.353	O.2	6	ILE6	-0.568	
83	  CB	614.899	149.605	-556.540	C.3	6	ILE6	0.130	
84	 CG1	614.919	149.544	-554.978	C.3	6	ILE6	-0.043	
85	 CG2	616.340	149.303	-557.055	C.3	6	ILE6	-0.320	
86	 CD1	615.191	148.155	-554.363	C.3	6	ILE6	-0.066	
87	   H	612.558	150.601	-555.914	 H	6	ILE6	0.272	
88	  HA	614.972	151.775	-556.873	 H	6	ILE6	0.087	
89	  HB	614.242	148.778	-556.883	 H	6	ILE6	0.019	
90	2HG1	613.937	149.863	-554.582	 H	6	ILE6	0.024	
91	3HG1	615.635	150.286	-554.575	 H	6	ILE6	0.024	
92	1HG2	616.399	149.209	-558.154	 H	6	ILE6	0.088	
93	2HG2	617.062	150.086	-556.754	 H	6	ILE6	0.088	
94	3HG2	616.731	148.342	-556.676	 H	6	ILE6	0.088	
95	1HD1	614.463	147.400	-554.716	 H	6	ILE6	0.019	
96	2HD1	616.201	147.777	-554.599	 H	6	ILE6	0.019	
97	3HD1	615.115	148.186	-553.260	 H	6	ILE6	0.019	
98	   N	613.295	150.237	-559.221	N.am	7	LEU7	-0.416	
99	  CA	613.239	150.200	-560.679	C.3	7	LEU7	-0.052	
100	   C	613.166	151.595	-561.253	C.2	7	LEU7	0.597	
101	   O	613.885	151.957	-562.195	O.2	7	LEU7	-0.568	
102	  CB	612.036	149.338	-561.158	C.3	7	LEU7	-0.110	
103	  CG	611.965	147.859	-560.691	C.3	7	LEU7	0.353	
104	 CD1	610.775	147.152	-561.356	C.3	7	LEU7	-0.412	
105	 CD2	613.259	147.081	-560.983	C.3	7	LEU7	-0.412	
106	   H	612.603	149.750	-558.669	 H	7	LEU7	0.272	
107	  HA	614.181	149.760	-561.054	 H	7	LEU7	0.092	
108	 2HB	612.013	149.354	-562.266	 H	7	LEU7	0.046	
109	 3HB	611.096	149.841	-560.854	 H	7	LEU7	0.046	
110	  HG	611.795	147.852	-559.594	 H	7	LEU7	-0.036	
111	1HD1	609.818	147.661	-561.133	 H	7	LEU7	0.100	
112	2HD1	610.874	147.111	-562.457	 H	7	LEU7	0.100	
113	3HD1	610.669	146.111	-560.999	 H	7	LEU7	0.100	
114	1HD2	613.533	147.111	-562.053	 H	7	LEU7	0.100	
115	2HD2	614.112	147.493	-560.412	 H	7	LEU7	0.100	
116	3HD2	613.178	146.019	-560.686	 H	7	LEU7	0.100	
117	   N	612.328	152.435	-560.746	N.am	8	ASP8	-0.516	
118	  CA	612.256	153.784	-561.300	C.3	8	ASP8	0.038	
119	   C	613.603	154.465	-561.244	C.2	8	ASP8	0.537	
120	   O	614.075	155.070	-562.219	O.2	8	ASP8	-0.582	
121	  CB	611.178	154.623	-560.559	C.3	8	ASP8	-0.030	
122	  CG	610.958	156.043	-561.100	C.2	8	ASP8	0.799	
123	 OD1	611.021	156.242	-562.331	O.co2	8	ASP8	-0.801	
124	 OD2	610.766	156.970	-560.285	O.co2	8	ASP8	-0.801	
125	   H	611.731	152.164	-559.978	 H	8	ASP8	0.294	
126	  HA	611.973	153.706	-562.367	 H	8	ASP8	0.088	
127	 2HB	611.436	154.707	-559.487	 H	8	ASP8	-0.012	
128	 3HB	610.199	154.117	-560.591	 H	8	ASP8	-0.012	
129	   N	614.283	154.416	-560.149	N.am	9	GLU9	-0.516	
130	  CA	615.585	155.075	-560.095	C.3	9	GLU9	0.040	
131	   C	616.503	154.547	-561.170	C.2	9	GLU9	0.537	
132	   O	617.167	155.302	-561.896	O.2	9	GLU9	-0.582	
133	  CB	616.219	154.868	-558.689	C.3	9	GLU9	0.056	
134	  CG	617.602	155.561	-558.461	C.3	9	GLU9	0.014	
135	  CD	618.304	155.349	-557.133	C.2	9	GLU9	0.805	
136	 OE1	617.783	154.659	-556.236	O.co2	9	GLU9	-0.819	
137	 OE2	619.423	155.888	-557.002	O.co2	9	GLU9	-0.819	
138	   H	613.920	153.930	-559.342	 H	9	GLU9	0.294	
139	  HA	615.442	156.156	-560.271	 H	9	GLU9	0.111	
140	 2HB	616.333	153.784	-558.486	 H	9	GLU9	-0.017	
141	 3HB	615.523	155.222	-557.905	 H	9	GLU9	-0.017	
142	 2HG	617.529	156.652	-558.601	 H	9	GLU9	-0.043	
143	 3HG	618.348	155.217	-559.195	 H	9	GLU9	-0.043	
144	   N	616.601	153.272	-561.339	N.am	10	HIS10	-0.416	
145	  CA	617.489	152.761	-562.380	C.3	10	HIS10	-0.058	
146	   C	617.121	153.324	-563.731	C.2	10	HIS10	0.597	
147	   O	617.973	153.790	-564.503	O.2	10	HIS10	-0.568	
148	  CB	617.326	151.232	-562.374	C.3	10	HIS10	-0.007	
149	  CG	618.612	150.522	-562.066	C.2	10	HIS10	0.187	
150	 CD2	618.993	150.188	-560.774	C.2	10	HIS10	-0.221	
151	 ND1	619.564	150.117	-562.999	N.2	10	HIS10	-0.543	
152	 CE1	620.471	149.560	-562.176	C.2	10	HIS10	0.163	
153	 NE2	620.209	149.557	-560.841	N.pl3	10	HIS10	-0.280	
154	   H	616.070	152.636	-560.760	 H	10	HIS10	0.272	
155	  HA	618.507	153.119	-562.155	 H	10	HIS10	0.136	
156	 2HB	616.960	150.864	-563.354	 H	10	HIS10	0.037	
157	 3HB	616.570	150.894	-561.634	 H	10	HIS10	0.037	
158	 2HD	618.408	150.403	-559.885	 H	10	HIS10	0.186	
159	 1HE	621.362	149.139	-562.623	 H	10	HIS10	0.144	
160	 2HE	620.776	149.181	-560.067	 H	10	HIS10	0.334	
161	   N	615.883	153.322	-564.094	N.am	11	VAL11	-0.416	
162	  CA	615.527	153.868	-565.400	C.3	11	VAL11	-0.087	
163	   C	615.990	155.299	-565.534	C.2	11	VAL11	0.597	
164	   O	616.590	155.704	-566.537	O.2	11	VAL11	-0.568	
165	  CB	613.965	153.760	-565.619	C.3	11	VAL11	0.299	
166	 CG1	613.396	154.463	-566.882	C.3	11	VAL11	-0.319	
167	 CG2	613.442	152.305	-565.692	C.3	11	VAL11	-0.319	
168	   H	615.170	152.949	-563.483	 H	11	VAL11	0.272	
169	  HA	616.046	153.285	-566.183	 H	11	VAL11	0.097	
170	  HB	613.478	154.240	-564.744	 H	11	VAL11	-0.030	
171	1HG1	613.834	154.071	-567.819	 H	11	VAL11	0.079	
172	2HG1	612.297	154.355	-566.963	 H	11	VAL11	0.079	
173	3HG1	613.573	155.555	-566.873	 H	11	VAL11	0.079	
174	1HG2	613.733	151.719	-564.801	 H	11	VAL11	0.079	
175	2HG2	612.336	152.267	-565.734	 H	11	VAL11	0.079	
176	3HG2	613.824	151.764	-566.578	 H	11	VAL11	0.079	
177	   N	615.753	156.125	-564.572	N.am	12	GLN12	-0.416	
178	  CA	616.200	157.508	-564.700	C.3	12	GLN12	-0.003	
179	   C	617.690	157.576	-564.938	C.2	12	GLN12	0.597	
180	   O	618.176	158.284	-565.817	O.2	12	GLN12	-0.568	
181	  CB	615.809	158.276	-563.417	C.3	12	GLN12	-0.004	
182	  CG	616.168	159.798	-563.387	C.3	12	GLN12	-0.064	
183	  CD	615.866	160.612	-562.122	C.2	12	GLN12	0.695	
184	 NE2	615.299	160.035	-561.093	N.pl3	12	GLN12	-0.941	
185	 OE1	616.167	161.793	-562.046	O.2	12	GLN12	-0.609	
186	   H	615.264	155.819	-563.742	 H	12	GLN12	0.272	
187	  HA	615.700	157.963	-565.575	 H	12	GLN12	0.085	
188	 2HB	616.286	157.776	-562.548	 H	12	GLN12	0.017	
189	 3HB	614.719	158.167	-563.254	 H	12	GLN12	0.017	
190	 2HG	615.690	160.318	-564.238	 H	12	GLN12	0.035	
191	 3HG	617.251	159.941	-563.553	 H	12	GLN12	0.035	
192	1HE2	615.192	160.630	-560.270	 H	12	GLN12	0.425	
193	2HE2	615.137	159.032	-561.196	 H	12	GLN12	0.425	
194	   N	618.475	156.871	-564.197	N.am	13	ARG13	-0.348	
195	  CA	619.915	156.937	-564.429	C.3	13	ARG13	-0.264	
196	   C	620.251	156.565	-565.854	C.2	13	ARG13	0.734	
197	   O	621.019	157.237	-566.539	O.2	13	ARG13	-0.589	
198	  CB	620.630	155.999	-563.415	C.3	13	ARG13	-0.001	
199	  CG	622.175	156.154	-563.334	C.3	13	ARG13	0.039	
200	  CD	622.803	155.167	-562.336	C.3	13	ARG13	0.049	
201	  NE	624.280	155.376	-562.287	N.pl3	13	ARG13	-0.530	
202	  CZ	625.129	154.685	-561.532	C.cat	13	ARG13	0.808	
203	 NH1	624.765	153.721	-560.734	N.pl3	13	ARG13	-0.863	
204	 NH2	626.388	154.985	-561.589	N.pl3	13	ARG13	-0.863	
205	   H	618.100	156.281	-563.468	 H	13	ARG13	0.275	
206	  HA	620.239	157.984	-564.271	 H	13	ARG13	0.156	
207	 2HB	620.364	154.949	-563.653	 H	13	ARG13	0.033	
208	 3HB	620.205	156.166	-562.404	 H	13	ARG13	0.033	
209	 2HG	622.422	157.199	-563.056	 H	13	ARG13	0.029	
210	 3HG	622.625	155.998	-564.336	 H	13	ARG13	0.029	
211	 2HD	622.559	154.127	-562.645	 H	13	ARG13	0.069	
212	 3HD	622.347	155.313	-561.334	 H	13	ARG13	0.069	
213	  HE	624.730	156.098	-562.858	 H	13	ARG13	0.346	
214	1HH1	623.760	153.534	-560.736	 H	13	ARG13	0.448	
215	2HH1	625.479	153.239	-560.185	 H	13	ARG13	0.448	
216	1HH2	626.655	155.743	-562.221	 H	13	ARG13	0.448	
217	2HH2	627.024	154.445	-561.001	 H	13	ARG13	0.448	
218	   N	619.716	155.510	-566.367	N.am	14	VAL14	-0.416	
219	  CA	620.040	155.150	-567.745	C.3	14	VAL14	-0.087	
220	   C	619.709	156.279	-568.691	C.2	14	VAL14	0.597	
221	   O	620.501	156.661	-569.561	O.2	14	VAL14	-0.568	
222	  CB	619.269	153.832	-568.151	C.3	14	VAL14	0.299	
223	 CG1	619.357	153.413	-569.644	C.3	14	VAL14	-0.319	
224	 CG2	619.702	152.581	-567.350	C.3	14	VAL14	-0.319	
225	   H	619.081	154.941	-565.825	 H	14	VAL14	0.272	
226	  HA	621.128	154.974	-567.820	 H	14	VAL14	0.097	
227	  HB	618.192	154.003	-567.934	 H	14	VAL14	-0.030	
228	1HG1	620.399	153.237	-569.973	 H	14	VAL14	0.079	
229	2HG1	618.785	152.490	-569.856	 H	14	VAL14	0.079	
230	3HG1	618.927	154.175	-570.322	 H	14	VAL14	0.079	
231	1HG2	619.615	152.740	-566.259	 H	14	VAL14	0.079	
232	2HG2	619.067	151.704	-567.581	 H	14	VAL14	0.079	
233	3HG2	620.750	152.292	-567.556	 H	14	VAL14	0.079	
234	   N	618.564	156.865	-568.589	N.am	15	MET15	-0.416	
235	  CA	618.242	157.956	-569.503	C.3	15	MET15	-0.024	
236	   C	619.271	159.057	-569.416	C.2	15	MET15	0.597	
237	   O	619.773	159.568	-570.430	O.2	15	MET15	-0.568	
238	  CB	616.820	158.501	-569.194	C.3	15	MET15	0.034	
239	  CG	615.659	157.502	-569.384	C.3	15	MET15	0.002	
240	  SD	614.084	158.367	-569.270	S.3	15	MET15	-0.274	
241	  CE	613.004	156.937	-569.132	C.3	15	MET15	-0.054	
242	   H	617.899	156.572	-567.887	 H	15	MET15	0.272	
243	  HA	618.267	157.569	-570.538	 H	15	MET15	0.088	
244	 2HB	616.617	159.379	-569.836	 H	15	MET15	0.024	
245	 3HB	616.785	158.894	-568.157	 H	15	MET15	0.024	
246	 2HG	615.703	156.717	-568.606	 H	15	MET15	0.044	
247	 3HG	615.722	156.986	-570.360	 H	15	MET15	0.044	
248	 1HE	613.148	156.248	-569.984	 H	15	MET15	0.068	
249	 2HE	613.214	156.384	-568.199	 H	15	MET15	0.068	
250	 3HE	611.946	157.251	-569.115	 H	15	MET15	0.068	
251	   N	619.640	159.479	-568.255	N.am	16	ARG16	-0.348	
252	  CA	620.636	160.544	-568.172	C.3	16	ARG16	-0.264	
253	   C	621.907	160.152	-568.889	C.2	16	ARG16	0.734	
254	   O	622.021	159.075	-569.470	O.2	16	ARG16	-0.589	
255	  CB	620.906	160.863	-566.674	C.3	16	ARG16	-0.001	
256	  CG	621.730	162.152	-566.402	C.3	16	ARG16	0.039	
257	  CD	621.980	162.373	-564.901	C.3	16	ARG16	0.049	
258	  NE	622.756	163.632	-564.701	N.pl3	16	ARG16	-0.530	
259	  CZ	623.147	164.116	-563.526	C.cat	16	ARG16	0.808	
260	 NH1	622.901	163.532	-562.387	N.pl3	16	ARG16	-0.863	
261	 NH2	623.811	165.229	-563.509	N.pl3	16	ARG16	-0.863	
262	   H	619.246	159.079	-567.415	 H	16	ARG16	0.275	
263	  HA	620.226	161.436	-568.682	 H	16	ARG16	0.156	
264	 2HB	621.404	159.987	-566.207	 H	16	ARG16	0.033	
265	 3HB	619.937	160.943	-566.140	 H	16	ARG16	0.033	
266	 2HG	621.199	163.023	-566.840	 H	16	ARG16	0.029	
267	 3HG	622.703	162.100	-566.932	 H	16	ARG16	0.029	
268	 2HD	622.530	161.499	-564.488	 H	16	ARG16	0.069	
269	 3HD	621.008	162.415	-564.365	 H	16	ARG16	0.069	
270	  HE	623.033	164.213	-565.499	 H	16	ARG16	0.346	
271	1HH1	622.376	162.658	-562.471	 H	16	ARG16	0.448	
272	2HH1	623.235	163.968	-561.527	 H	16	ARG16	0.448	
273	1HH2	623.995	165.671	-564.411	 H	16	ARG16	0.448	
274	2HH2	624.101	165.585	-562.596	 H	16	ARG16	0.448	
@<TRIPOS>BOND
1 1 2 1
2 1 10 1
3 2 3 1
4 2 5 1
5 2 11 1
6 3 4 2
7 3 16 1
8 5 6 1
9 6 7 1
10 7 8 2
11 7 9 1
12 5 12 1
13 5 13 1
14 6 14 1
15 6 15 1
16 16 17 1
17 16 24 1
18 17 18 1
19 17 20 1
20 17 25 1
21 18 19 2
22 18 30 1
23 20 21 1
24 21 22 1
25 21 23 2
26 20 26 1
27 20 27 1
28 22 28 1
29 22 29 1
30 30 31 1
31 30 36 1
32 31 32 1
33 31 34 1
34 31 37 1
35 32 33 2
36 32 44 1
37 34 35 1
38 35 36 1
39 34 38 1
40 34 39 1
41 35 40 1
42 35 41 1
43 36 42 1
44 36 43 1
45 44 45 1
46 44 58 1
47 45 46 1
48 45 48 1
49 45 59 1
50 46 47 2
51 46 68 1
52 48 49 1
53 49 51 1
54 49 50 2
55 51 53 1
56 51 52 2
57 52 54 1
58 53 56 2
59 50 54 1
60 52 55 1
61 56 57 1
62 55 57 2
63 48 60 1
64 48 61 1
65 50 62 1
66 54 63 1
67 53 64 1
68 55 65 1
69 56 66 1
70 57 67 1
71 68 69 1
72 68 74 1
73 69 70 1
74 69 72 1
75 69 75 1
76 70 71 2
77 70 79 1
78 72 73 1
79 72 76 1
80 72 77 1
81 73 78 1
82 79 80 1
83 79 87 1
84 80 81 1
85 80 83 1
86 80 88 1
87 81 82 2
88 81 98 1
89 83 84 1
90 83 85 1
91 84 86 1
92 83 89 1
93 84 90 1
94 84 91 1
95 85 92 1
96 85 93 1
97 85 94 1
98 86 95 1
99 86 96 1
100 86 97 1
101 98 99 1
102 98 106 1
103 99 100 1
104 99 102 1
105 99 107 1
106 100 101 2
107 100 117 1
108 102 103 1
109 103 104 1
110 103 105 1
111 102 108 1
112 102 109 1
113 103 110 1
114 104 111 1
115 104 112 1
116 104 113 1
117 105 114 1
118 105 115 1
119 105 116 1
120 117 118 1
121 117 125 1
122 118 119 1
123 118 121 1
124 118 126 1
125 119 120 2
126 119 129 1
127 121 122 1
128 122 123 2
129 122 124 1
130 121 127 1
131 121 128 1
132 129 130 1
133 129 138 1
134 130 131 1
135 130 133 1
136 130 139 1
137 131 132 2
138 131 144 1
139 133 134 1
140 134 135 1
141 135 136 2
142 135 137 1
143 133 140 1
144 133 141 1
145 134 142 1
146 134 143 1
147 144 145 1
148 144 154 1
149 145 146 1
150 145 148 1
151 145 155 1
152 146 147 2
153 146 161 1
154 148 149 1
155 149 150 2
156 150 153 1
157 149 151 1
158 151 152 2
159 152 153 1
160 148 156 1
161 148 157 1
162 150 158 1
163 152 159 1
164 153 160 1
165 161 162 1
166 161 168 1
167 162 163 1
168 162 165 1
169 162 169 1
170 163 164 2
171 163 177 1
172 165 166 1
173 165 167 1
174 165 170 1
175 166 171 1
176 166 172 1
177 166 173 1
178 167 174 1
179 167 175 1
180 167 176 1
181 177 178 1
182 177 186 1
183 178 179 1
184 178 181 1
185 178 187 1
186 179 180 2
187 179 194 1
188 181 182 1
189 182 183 1
190 183 184 1
191 183 185 2
192 181 188 1
193 181 189 1
194 182 190 1
195 182 191 1
196 184 192 1
197 184 193 1
198 194 195 1
199 194 205 1
200 195 196 1
201 195 198 1
202 195 206 1
203 196 197 2
204 196 218 1
205 198 199 1
206 199 200 1
207 200 201 1
208 201 202 1
209 202 203 2
210 202 204 1
211 198 207 1
212 198 208 1
213 199 209 1
214 199 210 1
215 200 211 1
216 200 212 1
217 201 213 1
218 203 214 1
219 203 215 1
220 204 216 1
221 204 217 1
222 218 219 1
223 218 225 1
224 219 220 1
225 219 222 1
226 219 226 1
227 220 221 2
228 220 234 1
229 222 223 1
230 222 224 1
231 222 227 1
232 223 228 1
233 223 229 1
234 223 230 1
235 224 231 1
236 224 232 1
237 224 233 1
238 234 235 1
239 234 242 1
240 235 236 1
241 235 238 1
242 235 243 1
243 236 237 2
244 236 251 1
245 238 239 1
246 239 240 1
247 240 241 1
248 238 244 1
249 238 245 1
250 239 246 1
251 239 247 1
252 241 248 1
253 241 249 1
254 241 250 1
255 251 252 1
256 251 262 1
257 252 253 1
258 252 255 1
259 252 263 1
260 253 254 2
261 255 256 1
262 256 257 1
263 257 258 1
264 258 259 1
265 259 260 2
266 259 261 1
267 255 264 1
268 255 265 1
269 256 266 1
270 256 267 1
271 257 268 1
272 257 269 1
273 258 270 1
274 260 271 1
275 260 272 1
276 261 273 1
277 261 274 1
@<TRIPOS>SUBSTRUCTURE
1	GLU1	1	RESIDUE	1 ****	GLU
2	ASN2	16	RESIDUE	1 ****	ASN
3	PRO3	30	RESIDUE	1 ****	PRO
4	TRP4	44	RESIDUE	1 ****	TRP
5	SER5	68	RESIDUE	1 ****	SER
6	ILE6	79	RESIDUE	1 ****	ILE
7	LEU7	98	RESIDUE	1 ****	LEU
8	ASP8	117	RESIDUE	1 ****	ASP
9	GLU9	129	RESIDUE	1 ****	GLU
10	HIS10	144	RESIDUE	1 ****	HIS
11	VAL11	161	RESIDUE	1 ****	VAL
12	GLN12	177	RESIDUE	1 ****	GLN
13	ARG13	194	RESIDUE	1 ****	ARG
14	VAL14	218	RESIDUE	1 ****	VAL
15	MET15	234	RESIDUE	1 ****	MET
16	ARG16	251	RESIDUE	1 ****	ARG
