@<TRIPOS>MOLECULE
11-19
271 272 16              
SMALL
USER_CHARGES
@<TRIPOS>ATOM
1	   N	1829.396	549.623	-1875.571	N.3	1	GLU1	-0.516	
2	  CA	1829.954	550.972	-1875.571	C.3	1	GLU1	0.040	
3	   C	1831.464	550.932	-1875.571	C.2	1	GLU1	0.537	
4	   O	1832.139	551.631	-1876.339	O.2	1	GLU1	-0.582	
5	  CB	1829.432	551.757	-1874.333	C.3	1	GLU1	0.056	
6	  CG	1829.906	553.242	-1874.223	C.3	1	GLU1	0.014	
7	  CD	1829.483	554.046	-1873.007	C.2	1	GLU1	0.805	
8	 OE1	1828.755	553.544	-1872.130	O.co2	1	GLU1	-0.819	
9	 OE2	1829.912	555.216	-1872.936	O.co2	1	GLU1	-0.819	
10	   H	1830.022	548.744	-1875.571	 H	1	GLU1	0.294	
11	  HA	1829.629	551.490	-1876.490	 H	1	GLU1	0.111	
12	 2HB	1829.720	551.226	-1873.404	 H	1	GLU1	-0.017	
13	 3HB	1828.324	551.747	-1874.321	 H	1	GLU1	-0.017	
14	 2HG	1829.597	553.827	-1875.104	 H	1	GLU1	-0.043	
15	 3HG	1831.006	553.309	-1874.193	 H	1	GLU1	-0.043	
16	   N	1832.068	550.146	-1874.745	N.am	2	ASN2	-0.416	
17	  CA	1833.527	550.108	-1874.745	C.3	2	ASN2	0.014	
18	   C	1834.059	549.752	-1876.114	C.2	2	ASN2	0.597	
19	   O	1834.974	550.383	-1876.643	O.2	2	ASN2	-0.568	
20	  CB	1834.019	549.085	-1873.681	C.3	2	ASN2	-0.204	
21	  CG	1833.556	549.309	-1872.238	C.2	2	ASN2	0.713	
22	 ND2	1834.151	550.224	-1871.520	N.pl3	2	ASN2	-0.919	
23	 OD1	1832.635	548.675	-1871.744	O.2	2	ASN2	-0.593	
24	   H	1831.540	549.567	-1874.109	 H	2	ASN2	0.272	
25	  HA	1833.905	551.118	-1874.500	 H	2	ASN2	0.105	
26	 2HB	1835.124	549.026	-1873.685	 H	2	ASN2	0.080	
27	 3HB	1833.690	548.067	-1873.967	 H	2	ASN2	0.080	
28	1HD2	1833.670	550.397	-1870.633	 H	2	ASN2	0.420	
29	2HD2	1834.852	550.795	-1871.989	 H	2	ASN2	0.420	
30	   N	1833.537	548.757	-1876.748	N.am	3	PRO3	-0.255	
31	  CA	1833.989	548.348	-1878.070	C.3	3	PRO3	-0.027	
32	   C	1833.591	549.371	-1879.146	C.2	3	PRO3	0.590	
33	   O	1834.414	549.754	-1879.978	O.2	3	PRO3	-0.575	
34	  CB	1833.285	546.993	-1878.239	C.3	3	PRO3	-0.007	
35	  CG	1832.001	547.145	-1877.409	C.3	3	PRO3	0.019	
36	  CD	1832.459	547.964	-1876.199	C.3	3	PRO3	0.019	
37	  HA	1835.075	548.228	-1878.083	 H	3	PRO3	0.064	
38	 2HB	1833.907	546.212	-1877.798	 H	3	PRO3	0.025	
39	 3HB	1833.086	546.745	-1879.284	 H	3	PRO3	0.025	
40	 2HG	1831.574	546.183	-1877.118	 H	3	PRO3	0.021	
41	 3HG	1831.264	547.716	-1877.976	 H	3	PRO3	0.021	
42	 2HD	1832.848	547.315	-1875.411	 H	3	PRO3	0.039	
43	 3HD	1831.663	548.600	-1875.806	 H	3	PRO3	0.039	
44	   N	1832.386	549.831	-1879.179	N.am	4	GLU4	-0.516	
45	  CA	1832.026	550.802	-1880.208	C.3	4	GLU4	0.040	
46	   C	1832.925	552.013	-1880.147	C.2	4	GLU4	0.537	
47	   O	1833.452	552.493	-1881.162	O.2	4	GLU4	-0.582	
48	  CB	1830.538	551.221	-1880.038	C.3	4	GLU4	0.056	
49	  CG	1829.990	552.225	-1881.104	C.3	4	GLU4	0.014	
50	  CD	1828.563	552.722	-1880.960	C.2	4	GLU4	0.805	
51	 OE1	1827.837	552.323	-1880.029	O.co2	4	GLU4	-0.819	
52	 OE2	1828.174	553.551	-1881.808	O.co2	4	GLU4	-0.819	
53	   H	1831.702	549.525	-1878.502	 H	4	GLU4	0.294	
54	  HA	1832.157	550.332	-1881.200	 H	4	GLU4	0.111	
55	 2HB	1830.385	551.661	-1879.031	 H	4	GLU4	-0.017	
56	 3HB	1829.890	550.323	-1880.044	 H	4	GLU4	-0.017	
57	 2HG	1830.071	551.810	-1882.121	 H	4	GLU4	-0.043	
58	 3HG	1830.578	553.157	-1881.115	 H	4	GLU4	-0.043	
59	   N	1833.153	552.566	-1879.004	N.am	5	SER5	-0.416	
60	  CA	1834.022	553.737	-1878.946	C.3	5	SER5	-0.025	
61	   C	1835.381	553.432	-1879.531	C.2	5	SER5	0.597	
62	   O	1835.928	554.185	-1880.336	O.2	5	SER5	-0.568	
63	  CB	1834.134	554.270	-1877.495	C.3	5	SER5	0.212	
64	  OG	1834.865	553.391	-1876.634	O.3	5	SER5	-0.655	
65	   H	1832.736	552.195	-1878.163	 H	5	SER5	0.272	
66	  HA	1833.573	554.528	-1879.575	 H	5	SER5	0.084	
67	 2HB	1833.134	554.463	-1877.062	 H	5	SER5	0.035	
68	 3HB	1834.639	555.255	-1877.498	 H	5	SER5	0.035	
69	  HG	1834.377	552.566	-1876.583	 H	5	SER5	0.428	
70	   N	1835.986	552.349	-1879.177	N.am	6	ILE6	-0.416	
71	  CA	1837.299	552.054	-1879.743	C.3	6	ILE6	-0.060	
72	   C	1837.242	552.017	-1881.251	C.2	6	ILE6	0.597	
73	   O	1838.077	552.605	-1881.955	O.2	6	ILE6	-0.568	
74	  CB	1837.899	550.718	-1879.143	C.3	6	ILE6	0.130	
75	 CG1	1837.919	550.656	-1877.582	C.3	6	ILE6	-0.043	
76	 CG2	1839.340	550.416	-1879.659	C.3	6	ILE6	-0.320	
77	 CD1	1838.188	549.267	-1876.967	C.3	6	ILE6	-0.066	
78	   H	1835.558	551.715	-1878.518	 H	6	ILE6	0.272	
79	  HA	1837.973	552.889	-1879.475	 H	6	ILE6	0.087	
80	  HB	1837.241	549.892	-1879.487	 H	6	ILE6	0.019	
81	2HG1	1836.936	550.976	-1877.186	 H	6	ILE6	0.024	
82	3HG1	1838.634	551.398	-1877.178	 H	6	ILE6	0.024	
83	1HG2	1839.399	550.323	-1880.757	 H	6	ILE6	0.088	
84	2HG2	1840.062	551.199	-1879.356	 H	6	ILE6	0.088	
85	3HG2	1839.730	549.454	-1879.280	 H	6	ILE6	0.088	
86	1HD1	1837.460	548.513	-1877.322	 H	6	ILE6	0.019	
87	2HD1	1839.199	548.888	-1877.203	 H	6	ILE6	0.019	
88	3HD1	1838.112	549.297	-1875.865	 H	6	ILE6	0.019	
89	   N	1836.296	551.353	-1881.825	N.am	7	LEU7	-0.416	
90	  CA	1836.241	551.317	-1883.283	C.3	7	LEU7	-0.052	
91	   C	1836.169	552.712	-1883.856	C.2	7	LEU7	0.597	
92	   O	1836.889	553.075	-1884.798	O.2	7	LEU7	-0.568	
93	  CB	1835.038	550.456	-1883.764	C.3	7	LEU7	-0.110	
94	  CG	1834.966	548.977	-1883.297	C.3	7	LEU7	0.353	
95	 CD1	1833.776	548.271	-1883.963	C.3	7	LEU7	-0.412	
96	 CD2	1836.260	548.198	-1883.589	C.3	7	LEU7	-0.412	
97	   H	1835.604	550.866	-1881.273	 H	7	LEU7	0.272	
98	  HA	1837.183	550.877	-1883.657	 H	7	LEU7	0.092	
99	 2HB	1835.015	550.472	-1884.871	 H	7	LEU7	0.046	
100	 3HB	1834.098	550.959	-1883.459	 H	7	LEU7	0.046	
101	  HG	1834.796	548.969	-1882.200	 H	7	LEU7	-0.036	
102	1HD1	1832.819	548.780	-1883.740	 H	7	LEU7	0.100	
103	2HD1	1833.875	548.231	-1885.064	 H	7	LEU7	0.100	
104	3HD1	1833.669	547.230	-1883.607	 H	7	LEU7	0.100	
105	1HD2	1836.535	548.229	-1884.659	 H	7	LEU7	0.100	
106	2HD2	1837.113	548.610	-1883.018	 H	7	LEU7	0.100	
107	3HD2	1836.178	547.136	-1883.293	 H	7	LEU7	0.100	
108	   N	1835.331	553.553	-1883.349	N.am	8	ASP8	-0.516	
109	  CA	1835.260	554.902	-1883.903	C.3	8	ASP8	0.038	
110	   C	1836.607	555.582	-1883.845	C.2	8	ASP8	0.537	
111	   O	1837.079	556.188	-1884.820	O.2	8	ASP8	-0.582	
112	  CB	1834.182	555.741	-1883.161	C.3	8	ASP8	-0.030	
113	  CG	1833.963	557.162	-1883.701	C.2	8	ASP8	0.799	
114	 OD1	1834.027	557.361	-1884.932	O.co2	8	ASP8	-0.801	
115	 OD2	1833.771	558.087	-1882.885	O.co2	8	ASP8	-0.801	
116	   H	1834.733	553.281	-1882.582	 H	8	ASP8	0.294	
117	  HA	1834.978	554.824	-1884.970	 H	8	ASP8	0.088	
118	 2HB	1834.439	555.824	-1882.089	 H	8	ASP8	-0.012	
119	 3HB	1833.203	555.236	-1883.194	 H	8	ASP8	-0.012	
120	   N	1837.287	555.532	-1882.750	N.am	9	GLU9	-0.516	
121	  CA	1838.589	556.190	-1882.695	C.3	9	GLU9	0.040	
122	   C	1839.507	555.663	-1883.771	C.2	9	GLU9	0.537	
123	   O	1840.171	556.418	-1884.496	O.2	9	GLU9	-0.582	
124	  CB	1839.223	555.983	-1881.289	C.3	9	GLU9	0.056	
125	  CG	1840.605	556.676	-1881.060	C.3	9	GLU9	0.014	
126	  CD	1841.307	556.463	-1879.732	C.2	9	GLU9	0.805	
127	 OE1	1840.786	555.771	-1878.836	O.co2	9	GLU9	-0.819	
128	 OE2	1842.426	557.001	-1879.600	O.co2	9	GLU9	-0.819	
129	   H	1836.924	555.046	-1881.943	 H	9	GLU9	0.294	
130	  HA	1838.447	557.272	-1882.870	 H	9	GLU9	0.111	
131	 2HB	1839.337	554.898	-1881.086	 H	9	GLU9	-0.017	
132	 3HB	1838.526	556.336	-1880.505	 H	9	GLU9	-0.017	
133	 2HG	1840.533	557.767	-1881.200	 H	9	GLU9	-0.043	
134	 3HG	1841.352	556.331	-1881.794	 H	9	GLU9	-0.043	
135	   N	1839.605	554.388	-1883.941	N.am	10	HIS10	-0.416	
136	  CA	1840.493	553.878	-1884.981	C.3	10	HIS10	-0.058	
137	   C	1840.125	554.442	-1886.332	C.2	10	HIS10	0.597	
138	   O	1840.977	554.908	-1887.104	O.2	10	HIS10	-0.568	
139	  CB	1840.329	552.349	-1884.977	C.3	10	HIS10	-0.007	
140	  CG	1841.615	551.639	-1884.669	C.2	10	HIS10	0.187	
141	 CD2	1841.997	551.303	-1883.377	C.2	10	HIS10	-0.221	
142	 ND1	1842.568	551.234	-1885.602	N.2	10	HIS10	-0.543	
143	 CE1	1843.474	550.676	-1884.779	C.2	10	HIS10	0.163	
144	 NE2	1843.212	550.672	-1883.444	N.pl3	10	HIS10	-0.280	
145	   H	1839.074	553.752	-1883.362	 H	10	HIS10	0.272	
146	  HA	1841.511	554.235	-1884.756	 H	10	HIS10	0.136	
147	 2HB	1839.964	551.982	-1885.957	 H	10	HIS10	0.037	
148	 3HB	1839.574	552.011	-1884.237	 H	10	HIS10	0.037	
149	 2HD	1841.411	551.518	-1882.487	 H	10	HIS10	0.186	
150	 1HE	1844.366	550.255	-1885.226	 H	10	HIS10	0.144	
151	 2HE	1843.779	550.295	-1882.671	 H	10	HIS10	0.334	
152	   N	1838.887	554.441	-1886.695	N.am	11	LYS11	-0.348	
153	  CA	1838.531	554.987	-1888.001	C.3	11	LYS11	-0.240	
154	   C	1838.995	556.418	-1888.134	C.2	11	LYS11	0.734	
155	   O	1839.595	556.824	-1889.139	O.2	11	LYS11	-0.589	
156	  CB	1836.995	554.879	-1888.206	C.3	11	LYS11	-0.009	
157	  CG	1836.523	555.364	-1889.599	C.3	11	LYS11	0.019	
158	  CD	1835.007	555.334	-1889.812	C.3	11	LYS11	-0.048	
159	  CE	1834.680	555.906	-1891.198	C.3	11	LYS11	-0.014	
160	  NZ	1833.245	555.720	-1891.478	N.4	11	LYS11	-0.385	
161	   H	1838.175	554.067	-1886.084	 H	11	LYS11	0.275	
162	  HA	1839.049	554.396	-1888.780	 H	11	LYS11	0.143	
163	 2HB	1836.473	555.450	-1887.411	 H	11	LYS11	0.036	
164	 3HB	1836.673	553.829	-1888.060	 H	11	LYS11	0.036	
165	 2HG	1837.028	554.774	-1890.388	 H	11	LYS11	0.010	
166	 3HG	1836.840	556.411	-1889.766	 H	11	LYS11	0.010	
167	 2HD	1834.505	555.930	-1889.023	 H	11	LYS11	0.062	
168	 3HD	1834.635	554.297	-1889.704	 H	11	LYS11	0.062	
169	 2HE	1835.279	555.408	-1891.988	 H	11	LYS11	0.113	
170	 3HE	1834.948	556.982	-1891.247	 H	11	LYS11	0.113	
171	 1HZ	1832.690	555.852	-1890.624	 H	11	LYS11	0.340	
172	 2HZ	1832.903	556.415	-1892.150	 H	11	LYS11	0.340	
173	 3HZ	1833.146	554.785	-1891.845	 H	11	LYS11	0.340	
174	   N	1838.758	557.244	-1887.172	N.am	12	GLN12	-0.416	
175	  CA	1839.205	558.627	-1887.299	C.3	12	GLN12	-0.003	
176	   C	1840.695	558.696	-1887.538	C.2	12	GLN12	0.597	
177	   O	1841.181	559.404	-1888.417	O.2	12	GLN12	-0.568	
178	  CB	1838.814	559.395	-1886.016	C.3	12	GLN12	-0.004	
179	  CG	1839.174	560.917	-1885.986	C.3	12	GLN12	-0.064	
180	  CD	1838.871	561.730	-1884.721	C.2	12	GLN12	0.695	
181	 NE2	1838.305	561.153	-1883.692	N.pl3	12	GLN12	-0.941	
182	 OE1	1839.172	562.911	-1884.644	O.2	12	GLN12	-0.609	
183	   H	1838.270	556.938	-1886.342	 H	12	GLN12	0.272	
184	  HA	1838.705	559.083	-1888.174	 H	12	GLN12	0.085	
185	 2HB	1839.292	558.895	-1885.147	 H	12	GLN12	0.017	
186	 3HB	1837.724	559.286	-1885.853	 H	12	GLN12	0.017	
187	 2HG	1838.695	561.437	-1886.836	 H	12	GLN12	0.035	
188	 3HG	1840.257	561.059	-1886.152	 H	12	GLN12	0.035	
189	1HE2	1838.198	561.748	-1882.868	 H	12	GLN12	0.425	
190	2HE2	1838.143	560.150	-1883.795	 H	12	GLN12	0.425	
191	   N	1841.480	557.990	-1886.798	N.am	13	ARG13	-0.348	
192	  CA	1842.920	558.056	-1887.029	C.3	13	ARG13	-0.264	
193	   C	1843.256	557.685	-1888.455	C.2	13	ARG13	0.734	
194	   O	1844.024	558.357	-1889.139	O.2	13	ARG13	-0.589	
195	  CB	1843.635	557.118	-1886.016	C.3	13	ARG13	-0.001	
196	  CG	1845.180	557.273	-1885.936	C.3	13	ARG13	0.039	
197	  CD	1845.809	556.286	-1884.938	C.3	13	ARG13	0.049	
198	  NE	1847.286	556.494	-1884.889	N.pl3	13	ARG13	-0.530	
199	  CZ	1848.135	555.803	-1884.134	C.cat	13	ARG13	0.808	
200	 NH1	1847.771	554.839	-1883.337	N.pl3	13	ARG13	-0.863	
201	 NH2	1849.394	556.103	-1884.192	N.pl3	13	ARG13	-0.863	
202	   H	1841.105	557.399	-1886.069	 H	13	ARG13	0.275	
203	  HA	1843.244	559.103	-1886.871	 H	13	ARG13	0.156	
204	 2HB	1843.370	556.068	-1886.255	 H	13	ARG13	0.033	
205	 3HB	1843.211	557.285	-1885.005	 H	13	ARG13	0.033	
206	 2HG	1845.427	558.318	-1885.657	 H	13	ARG13	0.029	
207	 3HG	1845.630	557.117	-1886.938	 H	13	ARG13	0.029	
208	 2HD	1845.565	555.245	-1885.247	 H	13	ARG13	0.069	
209	 3HD	1845.353	556.431	-1883.936	 H	13	ARG13	0.069	
210	  HE	1847.736	557.217	-1885.460	 H	13	ARG13	0.346	
211	1HH1	1846.766	554.652	-1883.339	 H	13	ARG13	0.448	
212	2HH1	1848.485	554.357	-1882.788	 H	13	ARG13	0.448	
213	1HH2	1849.661	556.861	-1884.824	 H	13	ARG13	0.448	
214	2HH2	1850.030	555.563	-1883.604	 H	13	ARG13	0.448	
215	   N	1842.721	556.630	-1888.969	N.am	14	VAL14	-0.416	
216	  CA	1843.045	556.271	-1890.346	C.3	14	VAL14	-0.087	
217	   C	1842.714	557.401	-1891.292	C.2	14	VAL14	0.597	
218	   O	1843.506	557.782	-1892.162	O.2	14	VAL14	-0.568	
219	  CB	1842.274	554.953	-1890.753	C.3	14	VAL14	0.299	
220	 CG1	1842.362	554.535	-1892.246	C.3	14	VAL14	-0.319	
221	 CG2	1842.707	553.701	-1889.953	C.3	14	VAL14	-0.319	
222	   H	1842.086	556.061	-1888.427	 H	14	VAL14	0.272	
223	  HA	1844.133	556.095	-1890.422	 H	14	VAL14	0.097	
224	  HB	1841.197	555.123	-1890.536	 H	14	VAL14	-0.030	
225	1HG1	1843.403	554.359	-1892.576	 H	14	VAL14	0.079	
226	2HG1	1841.790	553.611	-1892.459	 H	14	VAL14	0.079	
227	3HG1	1841.932	555.297	-1892.924	 H	14	VAL14	0.079	
228	1HG2	1842.620	553.860	-1888.862	 H	14	VAL14	0.079	
229	2HG2	1842.072	552.824	-1890.184	 H	14	VAL14	0.079	
230	3HG2	1843.755	553.412	-1890.159	 H	14	VAL14	0.079	
231	   N	1841.568	557.985	-1891.190	N.am	15	MET15	-0.416	
232	  CA	1841.247	559.078	-1892.104	C.3	15	MET15	-0.024	
233	   C	1842.276	560.179	-1892.016	C.2	15	MET15	0.597	
234	   O	1842.778	560.690	-1893.029	O.2	15	MET15	-0.568	
235	  CB	1839.825	559.622	-1891.794	C.3	15	MET15	0.034	
236	  CG	1838.664	558.623	-1891.985	C.3	15	MET15	0.002	
237	  SD	1837.089	559.488	-1891.870	S.3	15	MET15	-0.274	
238	  CE	1836.009	558.057	-1891.733	C.3	15	MET15	-0.054	
239	   H	1840.904	557.692	-1890.488	 H	15	MET15	0.272	
240	  HA	1841.272	558.690	-1893.139	 H	15	MET15	0.088	
241	 2HB	1839.622	560.501	-1892.436	 H	15	MET15	0.024	
242	 3HB	1839.790	560.015	-1890.758	 H	15	MET15	0.024	
243	 2HG	1838.708	557.838	-1891.207	 H	15	MET15	0.044	
244	 3HG	1838.726	558.108	-1892.961	 H	15	MET15	0.044	
245	 1HE	1836.153	557.369	-1892.585	 H	15	MET15	0.068	
246	 2HE	1836.219	557.505	-1890.800	 H	15	MET15	0.068	
247	 3HE	1834.951	558.372	-1891.715	 H	15	MET15	0.068	
248	   N	1842.645	560.600	-1890.854	N.am	16	ARG16	-0.348	
249	  CA	1843.641	561.665	-1890.771	C.3	16	ARG16	-0.264	
250	   C	1844.911	561.273	-1891.488	C.2	16	ARG16	0.734	
251	   O	1845.026	560.197	-1892.069	O.2	16	ARG16	-0.589	
252	  CB	1843.910	561.983	-1889.273	C.3	16	ARG16	-0.001	
253	  CG	1844.734	563.273	-1889.001	C.3	16	ARG16	0.039	
254	  CD	1844.985	563.492	-1887.500	C.3	16	ARG16	0.049	
255	  NE	1845.760	564.752	-1887.299	N.pl3	16	ARG16	-0.530	
256	  CZ	1846.151	565.235	-1886.124	C.cat	16	ARG16	0.808	
257	 NH1	1845.905	564.650	-1884.985	N.pl3	16	ARG16	-0.863	
258	 NH2	1846.814	566.348	-1886.106	N.pl3	16	ARG16	-0.863	
259	   H	1842.251	560.200	-1890.015	 H	16	ARG16	0.275	
260	  HA	1843.230	562.557	-1891.281	 H	16	ARG16	0.156	
261	 2HB	1844.408	561.108	-1888.807	 H	16	ARG16	0.033	
262	 3HB	1842.942	562.063	-1888.739	 H	16	ARG16	0.033	
263	 2HG	1844.203	564.143	-1889.438	 H	16	ARG16	0.029	
264	 3HG	1845.708	563.221	-1889.530	 H	16	ARG16	0.029	
265	 2HD	1845.534	562.618	-1887.087	 H	16	ARG16	0.069	
266	 3HD	1844.012	563.534	-1886.964	 H	16	ARG16	0.069	
267	  HE	1846.037	565.333	-1888.097	 H	16	ARG16	0.346	
268	1HH1	1845.380	563.777	-1885.069	 H	16	ARG16	0.448	
269	2HH1	1846.239	565.086	-1884.124	 H	16	ARG16	0.448	
270	1HH2	1846.999	566.791	-1887.008	 H	16	ARG16	0.448	
271	2HH2	1847.105	566.703	-1885.193	 H	16	ARG16	0.448	
@<TRIPOS>BOND
1 1 2 1
2 1 10 1
3 2 3 1
4 2 5 1
5 2 11 1
6 3 4 2
7 3 16 1
8 5 6 1
9 6 7 1
10 7 8 2
11 7 9 1
12 5 12 1
13 5 13 1
14 6 14 1
15 6 15 1
16 16 17 1
17 16 24 1
18 17 18 1
19 17 20 1
20 17 25 1
21 18 19 2
22 18 30 1
23 20 21 1
24 21 22 1
25 21 23 2
26 20 26 1
27 20 27 1
28 22 28 1
29 22 29 1
30 30 31 1
31 30 36 1
32 31 32 1
33 31 34 1
34 31 37 1
35 32 33 2
36 32 44 1
37 34 35 1
38 35 36 1
39 34 38 1
40 34 39 1
41 35 40 1
42 35 41 1
43 36 42 1
44 36 43 1
45 44 45 1
46 44 53 1
47 45 46 1
48 45 48 1
49 45 54 1
50 46 47 2
51 46 59 1
52 48 49 1
53 49 50 1
54 50 51 2
55 50 52 1
56 48 55 1
57 48 56 1
58 49 57 1
59 49 58 1
60 59 60 1
61 59 65 1
62 60 61 1
63 60 63 1
64 60 66 1
65 61 62 2
66 61 70 1
67 63 64 1
68 63 67 1
69 63 68 1
70 64 69 1
71 70 71 1
72 70 78 1
73 71 72 1
74 71 74 1
75 71 79 1
76 72 73 2
77 72 89 1
78 74 75 1
79 74 76 1
80 75 77 1
81 74 80 1
82 75 81 1
83 75 82 1
84 76 83 1
85 76 84 1
86 76 85 1
87 77 86 1
88 77 87 1
89 77 88 1
90 89 90 1
91 89 97 1
92 90 91 1
93 90 93 1
94 90 98 1
95 91 92 2
96 91 108 1
97 93 94 1
98 94 95 1
99 94 96 1
100 93 99 1
101 93 100 1
102 94 101 1
103 95 102 1
104 95 103 1
105 95 104 1
106 96 105 1
107 96 106 1
108 96 107 1
109 108 109 1
110 108 116 1
111 109 110 1
112 109 112 1
113 109 117 1
114 110 111 2
115 110 120 1
116 112 113 1
117 113 114 2
118 113 115 1
119 112 118 1
120 112 119 1
121 120 121 1
122 120 129 1
123 121 122 1
124 121 124 1
125 121 130 1
126 122 123 2
127 122 135 1
128 124 125 1
129 125 126 1
130 126 127 2
131 126 128 1
132 124 131 1
133 124 132 1
134 125 133 1
135 125 134 1
136 135 136 1
137 135 145 1
138 136 137 1
139 136 139 1
140 136 146 1
141 137 138 2
142 137 152 1
143 139 140 1
144 140 141 2
145 141 144 1
146 140 142 1
147 142 143 2
148 143 144 1
149 139 147 1
150 139 148 1
151 141 149 1
152 143 150 1
153 144 151 1
154 152 153 1
155 152 161 1
156 153 154 1
157 153 156 1
158 153 162 1
159 154 155 2
160 154 174 1
161 156 157 1
162 157 158 1
163 158 159 1
164 159 160 1
165 160 173 1
166 156 163 1
167 156 164 1
168 157 165 1
169 157 166 1
170 158 167 1
171 158 168 1
172 159 169 1
173 159 170 1
174 160 171 1
175 160 172 1
176 174 175 1
177 174 183 1
178 175 176 1
179 175 178 1
180 175 184 1
181 176 177 2
182 176 191 1
183 178 179 1
184 179 180 1
185 180 181 1
186 180 182 2
187 178 185 1
188 178 186 1
189 179 187 1
190 179 188 1
191 181 189 1
192 181 190 1
193 191 192 1
194 191 202 1
195 192 193 1
196 192 195 1
197 192 203 1
198 193 194 2
199 193 215 1
200 195 196 1
201 196 197 1
202 197 198 1
203 198 199 1
204 199 200 2
205 199 201 1
206 195 204 1
207 195 205 1
208 196 206 1
209 196 207 1
210 197 208 1
211 197 209 1
212 198 210 1
213 200 211 1
214 200 212 1
215 201 213 1
216 201 214 1
217 215 216 1
218 215 222 1
219 216 217 1
220 216 219 1
221 216 223 1
222 217 218 2
223 217 231 1
224 219 220 1
225 219 221 1
226 219 224 1
227 220 225 1
228 220 226 1
229 220 227 1
230 221 228 1
231 221 229 1
232 221 230 1
233 231 232 1
234 231 239 1
235 232 233 1
236 232 235 1
237 232 240 1
238 233 234 2
239 233 248 1
240 235 236 1
241 236 237 1
242 237 238 1
243 235 241 1
244 235 242 1
245 236 243 1
246 236 244 1
247 238 245 1
248 238 246 1
249 238 247 1
250 248 249 1
251 248 259 1
252 249 250 1
253 249 252 1
254 249 260 1
255 250 251 2
256 252 253 1
257 253 254 1
258 254 255 1
259 255 256 1
260 256 257 2
261 256 258 1
262 252 261 1
263 252 262 1
264 253 263 1
265 253 264 1
266 254 265 1
267 254 266 1
268 255 267 1
269 257 268 1
270 257 269 1
271 258 270 1
272 258 271 1
@<TRIPOS>SUBSTRUCTURE
1	GLU1	1	RESIDUE	1 ****	GLU
2	ASN2	16	RESIDUE	1 ****	ASN
3	PRO3	30	RESIDUE	1 ****	PRO
4	GLU4	44	RESIDUE	1 ****	GLU
5	SER5	59	RESIDUE	1 ****	SER
6	ILE6	70	RESIDUE	1 ****	ILE
7	LEU7	89	RESIDUE	1 ****	LEU
8	ASP8	108	RESIDUE	1 ****	ASP
9	GLU9	120	RESIDUE	1 ****	GLU
10	HIS10	135	RESIDUE	1 ****	HIS
11	LYS11	152	RESIDUE	1 ****	LYS
12	GLN12	174	RESIDUE	1 ****	GLN
13	ARG13	191	RESIDUE	1 ****	ARG
14	VAL14	215	RESIDUE	1 ****	VAL
15	MET15	231	RESIDUE	1 ****	MET
16	ARG16	248	RESIDUE	1 ****	ARG
