@<TRIPOS>MOLECULE
5-10
278 281 16              
SMALL
USER_CHARGES
@<TRIPOS>ATOM
1	   N	770.674	201.468	-728.613	N.3	1	GLU1	-0.516	
2	  CA	771.233	202.817	-728.613	C.3	1	GLU1	0.040	
3	   C	772.742	202.777	-728.613	C.2	1	GLU1	0.537	
4	   O	773.418	203.476	-729.381	O.2	1	GLU1	-0.582	
5	  CB	770.710	203.602	-727.376	C.3	1	GLU1	0.056	
6	  CG	771.185	205.087	-727.265	C.3	1	GLU1	0.014	
7	  CD	770.761	205.891	-726.050	C.2	1	GLU1	0.805	
8	 OE1	770.033	205.389	-725.172	O.co2	1	GLU1	-0.819	
9	 OE2	771.191	207.061	-725.978	O.co2	1	GLU1	-0.819	
10	   H	771.301	200.589	-728.613	 H	1	GLU1	0.294	
11	  HA	770.907	203.335	-729.533	 H	1	GLU1	0.111	
12	 2HB	770.999	203.071	-726.446	 H	1	GLU1	-0.017	
13	 3HB	769.603	203.592	-727.363	 H	1	GLU1	-0.017	
14	 2HG	770.875	205.672	-728.146	 H	1	GLU1	-0.043	
15	 3HG	772.285	205.154	-727.236	 H	1	GLU1	-0.043	
16	   N	773.346	201.991	-727.787	N.am	2	ASN2	-0.416	
17	  CA	774.806	201.953	-727.787	C.3	2	ASN2	0.014	
18	   C	775.337	201.597	-729.156	C.2	2	ASN2	0.597	
19	   O	776.252	202.228	-729.685	O.2	2	ASN2	-0.568	
20	  CB	775.298	200.930	-726.723	C.3	2	ASN2	-0.204	
21	  CG	774.835	201.153	-725.280	C.2	2	ASN2	0.713	
22	 ND2	775.429	202.068	-724.562	N.pl3	2	ASN2	-0.919	
23	 OD1	773.914	200.520	-724.786	O.2	2	ASN2	-0.593	
24	   H	772.818	201.411	-727.151	 H	2	ASN2	0.272	
25	  HA	775.183	202.962	-727.542	 H	2	ASN2	0.105	
26	 2HB	776.402	200.871	-726.727	 H	2	ASN2	0.080	
27	 3HB	774.969	199.911	-727.009	 H	2	ASN2	0.080	
28	1HD2	774.948	202.241	-723.675	 H	2	ASN2	0.420	
29	2HD2	776.131	202.640	-725.031	 H	2	ASN2	0.420	
30	   N	774.816	200.602	-729.790	N.am	3	PRO3	-0.255	
31	  CA	775.268	200.193	-731.112	C.3	3	PRO3	-0.027	
32	   C	774.869	201.216	-732.189	C.2	3	PRO3	0.590	
33	   O	775.693	201.600	-733.020	O.2	3	PRO3	-0.575	
34	  CB	774.564	198.838	-731.281	C.3	3	PRO3	-0.007	
35	  CG	773.280	198.990	-730.451	C.3	3	PRO3	0.019	
36	  CD	773.738	199.809	-729.241	C.3	3	PRO3	0.019	
37	  HA	776.354	200.073	-731.125	 H	3	PRO3	0.064	
38	 2HB	775.187	198.057	-730.840	 H	3	PRO3	0.025	
39	 3HB	774.366	198.590	-732.326	 H	3	PRO3	0.025	
40	 2HG	772.853	198.028	-730.160	 H	3	PRO3	0.021	
41	 3HG	772.543	199.561	-731.018	 H	3	PRO3	0.021	
42	 2HD	774.127	199.159	-728.454	 H	3	PRO3	0.039	
43	 3HD	772.941	200.444	-728.848	 H	3	PRO3	0.039	
44	   N	773.665	201.676	-732.221	N.am	4	GLU4	-0.516	
45	  CA	773.305	202.647	-733.251	C.3	4	GLU4	0.040	
46	   C	774.204	203.858	-733.190	C.2	4	GLU4	0.537	
47	   O	774.730	204.338	-734.204	O.2	4	GLU4	-0.582	
48	  CB	771.816	203.065	-733.081	C.3	4	GLU4	0.056	
49	  CG	771.268	204.069	-734.146	C.3	4	GLU4	0.014	
50	  CD	769.841	204.565	-734.003	C.2	4	GLU4	0.805	
51	 OE1	769.115	204.167	-733.072	O.co2	4	GLU4	-0.819	
52	 OE2	769.452	205.394	-734.851	O.co2	4	GLU4	-0.819	
53	   H	772.980	201.369	-731.544	 H	4	GLU4	0.294	
54	  HA	773.436	202.176	-734.242	 H	4	GLU4	0.111	
55	 2HB	771.664	203.505	-732.074	 H	4	GLU4	-0.017	
56	 3HB	771.169	202.168	-733.087	 H	4	GLU4	-0.017	
57	 2HG	771.350	203.654	-735.164	 H	4	GLU4	-0.043	
58	 3HG	771.856	205.001	-734.157	 H	4	GLU4	-0.043	
59	   N	774.431	204.411	-732.046	N.am	5	TRP5	-0.416	
60	  CA	775.300	205.583	-731.987	C.3	5	TRP5	-0.027	
61	   C	776.659	205.279	-732.571	C.2	5	TRP5	0.597	
62	   O	777.206	206.033	-733.375	O.2	5	TRP5	-0.568	
63	  CB	775.453	206.027	-730.506	C.3	5	TRP5	-0.005	
64	  CG	774.166	206.547	-729.856	C.2	5	TRP5	-0.141	
65	 CD1	773.290	205.792	-729.050	C.2	5	TRP5	-0.164	
66	 CD2	773.576	207.786	-730.000	C.2	5	TRP5	0.124	
67	 CE2	772.356	207.772	-729.279	C.2	5	TRP5	0.138	
68	 CE3	773.975	208.940	-730.722	C.2	5	TRP5	-0.239	
69	 NE1	772.156	206.539	-728.676	N.pl3	5	TRP5	-0.342	
70	 CZ2	771.531	208.917	-729.266	C.2	5	TRP5	-0.260	
71	 CZ3	773.146	210.061	-730.688	C.2	5	TRP5	-0.197	
72	 CH2	771.943	210.052	-729.969	C.2	5	TRP5	-0.113	
73	   H	774.014	204.039	-731.205	 H	5	TRP5	0.272	
74	  HA	774.853	206.397	-732.588	 H	5	TRP5	0.112	
75	 2HB	776.214	206.826	-730.422	 H	5	TRP5	0.034	
76	 3HB	775.861	205.196	-729.898	 H	5	TRP5	0.034	
77	 1HD	773.450	204.753	-728.794	 H	5	TRP5	0.206	
78	 1HE	771.344	206.231	-728.129	 H	5	TRP5	0.341	
79	 3HE	774.897	208.953	-731.286	 H	5	TRP5	0.170	
80	 2HZ	770.600	208.911	-728.719	 H	5	TRP5	0.157	
81	 3HZ	773.438	210.951	-731.227	 H	5	TRP5	0.145	
82	 2HH	771.324	210.937	-729.958	 H	5	TRP5	0.142	
83	   N	777.265	204.196	-732.218	N.am	6	ILE6	-0.416	
84	  CA	778.579	203.903	-732.783	C.3	6	ILE6	-0.060	
85	   C	778.523	203.866	-734.291	C.2	6	ILE6	0.597	
86	   O	779.357	204.455	-734.994	O.2	6	ILE6	-0.568	
87	  CB	779.179	202.567	-732.184	C.3	6	ILE6	0.130	
88	 CG1	779.198	202.503	-730.623	C.3	6	ILE6	-0.043	
89	 CG2	780.621	202.267	-732.698	C.3	6	ILE6	-0.320	
90	 CD1	779.469	201.114	-730.009	C.3	6	ILE6	-0.066	
91	   H	776.837	203.561	-731.560	 H	6	ILE6	0.272	
92	  HA	779.252	204.738	-732.514	 H	6	ILE6	0.087	
93	  HB	778.523	201.740	-732.529	 H	6	ILE6	0.019	
94	2HG1	778.215	202.822	-730.227	 H	6	ILE6	0.024	
95	3HG1	779.913	203.246	-730.217	 H	6	ILE6	0.024	
96	1HG2	780.681	202.174	-733.797	 H	6	ILE6	0.088	
97	2HG2	781.343	203.050	-732.395	 H	6	ILE6	0.088	
98	3HG2	781.012	201.305	-732.320	 H	6	ILE6	0.088	
99	1HD1	778.741	200.359	-730.364	 H	6	ILE6	0.019	
100	2HD1	780.480	200.736	-730.244	 H	6	ILE6	0.019	
101	3HD1	779.392	201.143	-728.906	 H	6	ILE6	0.019	
102	   N	777.578	203.202	-734.866	N.am	7	LEU7	-0.416	
103	  CA	777.524	203.167	-736.324	C.3	7	LEU7	-0.052	
104	   C	777.451	204.563	-736.896	C.2	7	LEU7	0.597	
105	   O	778.172	204.927	-737.837	O.2	7	LEU7	-0.568	
106	  CB	776.322	202.306	-736.806	C.3	7	LEU7	-0.110	
107	  CG	776.250	200.826	-736.341	C.3	7	LEU7	0.353	
108	 CD1	775.062	200.120	-737.008	C.3	7	LEU7	-0.412	
109	 CD2	777.545	200.049	-736.632	C.3	7	LEU7	-0.412	
110	   H	776.886	202.714	-734.315	 H	7	LEU7	0.272	
111	  HA	778.466	202.728	-736.698	 H	7	LEU7	0.092	
112	 2HB	776.299	202.323	-737.914	 H	7	LEU7	0.046	
113	 3HB	775.382	202.808	-736.502	 H	7	LEU7	0.046	
114	  HG	776.080	200.817	-735.244	 H	7	LEU7	-0.036	
115	1HD1	774.104	200.628	-736.786	 H	7	LEU7	0.100	
116	2HD1	775.162	200.080	-738.109	 H	7	LEU7	0.100	
117	3HD1	774.955	199.078	-736.653	 H	7	LEU7	0.100	
118	1HD2	777.821	200.080	-737.702	 H	7	LEU7	0.100	
119	2HD2	778.397	200.460	-736.060	 H	7	LEU7	0.100	
120	3HD2	777.464	198.986	-736.337	 H	7	LEU7	0.100	
121	   N	776.612	205.402	-736.390	N.am	8	ASP8	-0.516	
122	  CA	776.541	206.752	-736.942	C.3	8	ASP8	0.038	
123	   C	777.887	207.433	-736.883	C.2	8	ASP8	0.537	
124	   O	778.360	208.039	-737.857	O.2	8	ASP8	-0.582	
125	  CB	775.462	207.590	-736.201	C.3	8	ASP8	-0.030	
126	  CG	775.242	209.010	-736.740	C.2	8	ASP8	0.799	
127	 OD1	775.307	209.210	-737.971	O.co2	8	ASP8	-0.801	
128	 OD2	775.048	209.936	-735.924	O.co2	8	ASP8	-0.801	
129	   H	776.014	205.130	-735.623	 H	8	ASP8	0.294	
130	  HA	776.259	206.675	-738.009	 H	8	ASP8	0.088	
131	 2HB	775.718	207.672	-735.128	 H	8	ASP8	-0.012	
132	 3HB	774.483	207.084	-736.235	 H	8	ASP8	-0.012	
133	   N	778.566	207.383	-735.788	N.am	9	GLU9	-0.516	
134	  CA	779.868	208.042	-735.731	C.3	9	GLU9	0.040	
135	   C	780.787	207.516	-736.806	C.2	9	GLU9	0.537	
136	   O	781.451	208.271	-737.530	O.2	9	GLU9	-0.582	
137	  CB	780.501	207.834	-734.325	C.3	9	GLU9	0.056	
138	  CG	781.882	208.527	-734.094	C.3	9	GLU9	0.014	
139	  CD	782.583	208.313	-732.765	C.2	9	GLU9	0.805	
140	 OE1	782.062	207.621	-731.870	O.co2	9	GLU9	-0.819	
141	 OE2	783.702	208.852	-732.632	O.co2	9	GLU9	-0.819	
142	   H	778.202	206.896	-734.981	 H	9	GLU9	0.294	
143	  HA	779.725	209.124	-735.905	 H	9	GLU9	0.111	
144	 2HB	780.614	206.749	-734.122	 H	9	GLU9	-0.017	
145	 3HB	779.803	208.186	-733.541	 H	9	GLU9	-0.017	
146	 2HG	781.810	209.618	-734.233	 H	9	GLU9	-0.043	
147	 3HG	782.630	208.183	-734.828	 H	9	GLU9	-0.043	
148	   N	780.885	206.241	-736.977	N.am	10	HIS10	-0.416	
149	  CA	781.774	205.731	-738.017	C.3	10	HIS10	-0.058	
150	   C	781.408	206.297	-739.368	C.2	10	HIS10	0.597	
151	   O	782.261	206.763	-740.138	O.2	10	HIS10	-0.568	
152	  CB	781.612	204.202	-738.013	C.3	10	HIS10	-0.007	
153	  CG	782.898	203.493	-737.705	C.2	10	HIS10	0.187	
154	 CD2	783.278	203.157	-736.412	C.2	10	HIS10	-0.221	
155	 ND1	783.851	203.089	-738.637	N.2	10	HIS10	-0.543	
156	 CE1	784.757	202.531	-737.814	C.2	10	HIS10	0.163	
157	 NE2	784.493	202.526	-736.479	N.pl3	10	HIS10	-0.280	
158	   H	780.354	205.604	-736.399	 H	10	HIS10	0.272	
159	  HA	782.793	206.089	-737.790	 H	10	HIS10	0.136	
160	 2HB	781.248	203.836	-738.994	 H	10	HIS10	0.037	
161	 3HB	780.856	203.864	-737.274	 H	10	HIS10	0.037	
162	 2HD	782.691	203.370	-735.524	 H	10	HIS10	0.186	
163	 1HE	785.649	202.111	-738.260	 H	10	HIS10	0.144	
164	 2HE	785.060	202.149	-735.705	 H	10	HIS10	0.334	
165	   N	780.171	206.295	-739.732	N.am	11	VAL11	-0.416	
166	  CA	779.816	206.842	-741.038	C.3	11	VAL11	-0.087	
167	   C	780.279	208.273	-741.169	C.2	11	VAL11	0.597	
168	   O	780.881	208.680	-742.171	O.2	11	VAL11	-0.568	
169	  CB	778.255	206.734	-741.259	C.3	11	VAL11	0.299	
170	 CG1	777.687	207.439	-742.522	C.3	11	VAL11	-0.319	
171	 CG2	777.732	205.279	-741.334	C.3	11	VAL11	-0.319	
172	   H	779.458	205.921	-739.122	 H	11	VAL11	0.272	
173	  HA	780.337	206.261	-741.821	 H	11	VAL11	0.097	
174	  HB	777.766	207.213	-740.384	 H	11	VAL11	-0.030	
175	1HG1	778.127	207.048	-743.459	 H	11	VAL11	0.079	
176	2HG1	776.588	207.330	-742.605	 H	11	VAL11	0.079	
177	3HG1	777.864	208.531	-742.511	 H	11	VAL11	0.079	
178	1HG2	778.022	204.692	-740.444	 H	11	VAL11	0.079	
179	2HG2	776.626	205.241	-741.378	 H	11	VAL11	0.079	
180	3HG2	778.115	204.740	-742.221	 H	11	VAL11	0.079	
181	   N	780.041	209.098	-740.206	N.am	12	GLN12	-0.416	
182	  CA	780.488	210.481	-740.331	C.3	12	GLN12	-0.003	
183	   C	781.978	210.550	-740.568	C.2	12	GLN12	0.597	
184	   O	782.465	211.260	-741.445	O.2	12	GLN12	-0.568	
185	  CB	780.095	211.247	-739.048	C.3	12	GLN12	-0.004	
186	  CG	780.454	212.769	-739.016	C.3	12	GLN12	-0.064	
187	  CD	780.150	213.581	-737.750	C.2	12	GLN12	0.695	
188	 NE2	779.582	213.003	-736.722	N.pl3	12	GLN12	-0.941	
189	 OE1	780.450	214.762	-737.671	O.2	12	GLN12	-0.609	
190	   H	779.551	208.790	-739.378	 H	12	GLN12	0.272	
191	  HA	779.989	210.938	-741.206	 H	12	GLN12	0.085	
192	 2HB	780.571	210.746	-738.179	 H	12	GLN12	0.017	
193	 3HB	779.005	211.138	-738.886	 H	12	GLN12	0.017	
194	 2HG	779.977	213.290	-739.866	 H	12	GLN12	0.035	
195	 3HG	781.538	212.912	-739.180	 H	12	GLN12	0.035	
196	1HE2	779.474	213.597	-735.898	 H	12	GLN12	0.425	
197	2HE2	779.420	211.999	-736.827	 H	12	GLN12	0.425	
198	   N	782.763	209.843	-739.827	N.am	13	ARG13	-0.348	
199	  CA	784.203	209.911	-740.056	C.3	13	ARG13	-0.264	
200	   C	784.541	209.541	-741.482	C.2	13	ARG13	0.734	
201	   O	785.310	210.214	-742.164	O.2	13	ARG13	-0.589	
202	  CB	784.916	208.971	-739.043	C.3	13	ARG13	-0.001	
203	  CG	786.461	209.126	-738.960	C.3	13	ARG13	0.039	
204	  CD	787.088	208.138	-737.963	C.3	13	ARG13	0.049	
205	  NE	788.565	208.346	-737.911	N.pl3	13	ARG13	-0.530	
206	  CZ	789.413	207.655	-737.156	C.cat	13	ARG13	0.808	
207	 NH1	789.048	206.689	-736.360	N.pl3	13	ARG13	-0.863	
208	 NH2	790.672	207.955	-737.211	N.pl3	13	ARG13	-0.863	
209	   H	782.386	209.252	-739.099	 H	13	ARG13	0.275	
210	  HA	784.526	210.957	-739.897	 H	13	ARG13	0.156	
211	 2HB	784.651	207.921	-739.283	 H	13	ARG13	0.033	
212	 3HB	784.490	209.137	-738.032	 H	13	ARG13	0.033	
213	 2HG	786.708	210.170	-738.680	 H	13	ARG13	0.029	
214	 3HG	786.913	208.971	-739.961	 H	13	ARG13	0.029	
215	 2HD	786.845	207.098	-738.273	 H	13	ARG13	0.069	
216	 3HD	786.631	208.282	-736.961	 H	13	ARG13	0.069	
217	  HE	789.016	209.069	-738.481	 H	13	ARG13	0.346	
218	1HH1	788.043	206.502	-736.364	 H	13	ARG13	0.448	
219	2HH1	789.761	206.206	-735.811	 H	13	ARG13	0.448	
220	1HH2	790.940	208.714	-737.841	 H	13	ARG13	0.448	
221	2HH2	791.308	207.414	-736.622	 H	13	ARG13	0.448	
222	   N	784.006	208.486	-741.997	N.am	14	VAL14	-0.416	
223	  CA	784.333	208.129	-743.375	C.3	14	VAL14	-0.087	
224	   C	784.002	209.259	-744.320	C.2	14	VAL14	0.597	
225	   O	784.796	209.642	-745.188	O.2	14	VAL14	-0.568	
226	  CB	783.562	206.811	-743.784	C.3	14	VAL14	0.299	
227	 CG1	783.653	206.394	-745.278	C.3	14	VAL14	-0.319	
228	 CG2	783.994	205.559	-742.984	C.3	14	VAL14	-0.319	
229	   H	783.371	207.917	-741.457	 H	14	VAL14	0.272	
230	  HA	785.421	207.953	-743.449	 H	14	VAL14	0.097	
231	  HB	782.485	206.981	-743.569	 H	14	VAL14	-0.030	
232	1HG1	784.695	206.219	-745.606	 H	14	VAL14	0.079	
233	2HG1	783.081	205.471	-745.492	 H	14	VAL14	0.079	
234	3HG1	783.224	207.157	-745.956	 H	14	VAL14	0.079	
235	1HG2	783.906	205.716	-741.894	 H	14	VAL14	0.079	
236	2HG2	783.359	204.682	-743.218	 H	14	VAL14	0.079	
237	3HG2	785.042	205.270	-743.189	 H	14	VAL14	0.079	
238	   N	782.857	209.844	-744.219	N.am	15	MET15	-0.416	
239	  CA	782.536	210.937	-745.132	C.3	15	MET15	-0.024	
240	   C	783.566	212.038	-745.042	C.2	15	MET15	0.597	
241	   O	784.069	212.550	-746.054	O.2	15	MET15	-0.568	
242	  CB	781.114	211.481	-744.823	C.3	15	MET15	0.034	
243	  CG	779.953	210.482	-745.017	C.3	15	MET15	0.002	
244	  SD	778.379	211.347	-744.904	S.3	15	MET15	-0.274	
245	  CE	777.299	209.916	-744.770	C.3	15	MET15	-0.054	
246	   H	782.192	209.550	-743.518	 H	15	MET15	0.272	
247	  HA	782.564	210.551	-746.168	 H	15	MET15	0.088	
248	 2HB	780.912	212.360	-745.465	 H	15	MET15	0.024	
249	 3HB	781.078	211.873	-743.787	 H	15	MET15	0.024	
250	 2HG	779.996	209.696	-744.240	 H	15	MET15	0.044	
251	 3HG	780.018	209.968	-745.994	 H	15	MET15	0.044	
252	 1HE	777.444	209.229	-745.622	 H	15	MET15	0.068	
253	 2HE	777.507	209.362	-743.837	 H	15	MET15	0.068	
254	 3HE	776.241	210.230	-744.754	 H	15	MET15	0.068	
255	   N	783.933	212.458	-743.879	N.am	16	ARG16	-0.348	
256	  CA	784.928	213.523	-743.793	C.3	16	ARG16	-0.264	
257	   C	786.200	213.132	-744.509	C.2	16	ARG16	0.734	
258	   O	786.315	212.056	-745.091	O.2	16	ARG16	-0.589	
259	  CB	785.195	213.840	-742.294	C.3	16	ARG16	-0.001	
260	  CG	786.019	215.129	-742.020	C.3	16	ARG16	0.039	
261	  CD	786.267	215.348	-740.518	C.3	16	ARG16	0.049	
262	  NE	787.042	216.607	-740.315	N.pl3	16	ARG16	-0.530	
263	  CZ	787.432	217.089	-739.139	C.cat	16	ARG16	0.808	
264	 NH1	787.184	216.503	-738.001	N.pl3	16	ARG16	-0.863	
265	 NH2	788.095	218.202	-739.119	N.pl3	16	ARG16	-0.863	
266	   H	783.538	212.057	-743.040	 H	16	ARG16	0.275	
267	  HA	784.519	214.416	-744.303	 H	16	ARG16	0.156	
268	 2HB	785.693	212.964	-741.828	 H	16	ARG16	0.033	
269	 3HB	784.226	213.919	-741.761	 H	16	ARG16	0.033	
270	 2HG	785.488	216.000	-742.456	 H	16	ARG16	0.029	
271	 3HG	786.993	215.078	-742.548	 H	16	ARG16	0.029	
272	 2HD	786.817	214.473	-740.105	 H	16	ARG16	0.069	
273	 3HD	785.294	215.389	-739.984	 H	16	ARG16	0.069	
274	  HE	787.321	217.189	-741.112	 H	16	ARG16	0.346	
275	1HH1	786.659	215.630	-738.087	 H	16	ARG16	0.448	
276	2HH1	787.517	216.938	-737.139	 H	16	ARG16	0.448	
277	1HH2	788.280	218.646	-740.020	 H	16	ARG16	0.448	
278	2HH2	788.384	218.557	-738.205	 H	16	ARG16	0.448	
@<TRIPOS>BOND
1 1 2 1
2 1 10 1
3 2 3 1
4 2 5 1
5 2 11 1
6 3 4 2
7 3 16 1
8 5 6 1
9 6 7 1
10 7 8 2
11 7 9 1
12 5 12 1
13 5 13 1
14 6 14 1
15 6 15 1
16 16 17 1
17 16 24 1
18 17 18 1
19 17 20 1
20 17 25 1
21 18 19 2
22 18 30 1
23 20 21 1
24 21 22 1
25 21 23 2
26 20 26 1
27 20 27 1
28 22 28 1
29 22 29 1
30 30 31 1
31 30 36 1
32 31 32 1
33 31 34 1
34 31 37 1
35 32 33 2
36 32 44 1
37 34 35 1
38 35 36 1
39 34 38 1
40 34 39 1
41 35 40 1
42 35 41 1
43 36 42 1
44 36 43 1
45 44 45 1
46 44 53 1
47 45 46 1
48 45 48 1
49 45 54 1
50 46 47 2
51 46 59 1
52 48 49 1
53 49 50 1
54 50 51 2
55 50 52 1
56 48 55 1
57 48 56 1
58 49 57 1
59 49 58 1
60 59 60 1
61 59 73 1
62 60 61 1
63 60 63 1
64 60 74 1
65 61 62 2
66 61 83 1
67 63 64 1
68 64 66 1
69 64 65 2
70 66 68 1
71 66 67 2
72 67 69 1
73 68 71 2
74 65 69 1
75 67 70 1
76 71 72 1
77 70 72 2
78 63 75 1
79 63 76 1
80 65 77 1
81 69 78 1
82 68 79 1
83 70 80 1
84 71 81 1
85 72 82 1
86 83 84 1
87 83 91 1
88 84 85 1
89 84 87 1
90 84 92 1
91 85 86 2
92 85 102 1
93 87 88 1
94 87 89 1
95 88 90 1
96 87 93 1
97 88 94 1
98 88 95 1
99 89 96 1
100 89 97 1
101 89 98 1
102 90 99 1
103 90 100 1
104 90 101 1
105 102 103 1
106 102 110 1
107 103 104 1
108 103 106 1
109 103 111 1
110 104 105 2
111 104 121 1
112 106 107 1
113 107 108 1
114 107 109 1
115 106 112 1
116 106 113 1
117 107 114 1
118 108 115 1
119 108 116 1
120 108 117 1
121 109 118 1
122 109 119 1
123 109 120 1
124 121 122 1
125 121 129 1
126 122 123 1
127 122 125 1
128 122 130 1
129 123 124 2
130 123 133 1
131 125 126 1
132 126 127 2
133 126 128 1
134 125 131 1
135 125 132 1
136 133 134 1
137 133 142 1
138 134 135 1
139 134 137 1
140 134 143 1
141 135 136 2
142 135 148 1
143 137 138 1
144 138 139 1
145 139 140 2
146 139 141 1
147 137 144 1
148 137 145 1
149 138 146 1
150 138 147 1
151 148 149 1
152 148 158 1
153 149 150 1
154 149 152 1
155 149 159 1
156 150 151 2
157 150 165 1
158 152 153 1
159 153 154 2
160 154 157 1
161 153 155 1
162 155 156 2
163 156 157 1
164 152 160 1
165 152 161 1
166 154 162 1
167 156 163 1
168 157 164 1
169 165 166 1
170 165 172 1
171 166 167 1
172 166 169 1
173 166 173 1
174 167 168 2
175 167 181 1
176 169 170 1
177 169 171 1
178 169 174 1
179 170 175 1
180 170 176 1
181 170 177 1
182 171 178 1
183 171 179 1
184 171 180 1
185 181 182 1
186 181 190 1
187 182 183 1
188 182 185 1
189 182 191 1
190 183 184 2
191 183 198 1
192 185 186 1
193 186 187 1
194 187 188 1
195 187 189 2
196 185 192 1
197 185 193 1
198 186 194 1
199 186 195 1
200 188 196 1
201 188 197 1
202 198 199 1
203 198 209 1
204 199 200 1
205 199 202 1
206 199 210 1
207 200 201 2
208 200 222 1
209 202 203 1
210 203 204 1
211 204 205 1
212 205 206 1
213 206 207 2
214 206 208 1
215 202 211 1
216 202 212 1
217 203 213 1
218 203 214 1
219 204 215 1
220 204 216 1
221 205 217 1
222 207 218 1
223 207 219 1
224 208 220 1
225 208 221 1
226 222 223 1
227 222 229 1
228 223 224 1
229 223 226 1
230 223 230 1
231 224 225 2
232 224 238 1
233 226 227 1
234 226 228 1
235 226 231 1
236 227 232 1
237 227 233 1
238 227 234 1
239 228 235 1
240 228 236 1
241 228 237 1
242 238 239 1
243 238 246 1
244 239 240 1
245 239 242 1
246 239 247 1
247 240 241 2
248 240 255 1
249 242 243 1
250 243 244 1
251 244 245 1
252 242 248 1
253 242 249 1
254 243 250 1
255 243 251 1
256 245 252 1
257 245 253 1
258 245 254 1
259 255 256 1
260 255 266 1
261 256 257 1
262 256 259 1
263 256 267 1
264 257 258 2
265 259 260 1
266 260 261 1
267 261 262 1
268 262 263 1
269 263 264 2
270 263 265 1
271 259 268 1
272 259 269 1
273 260 270 1
274 260 271 1
275 261 272 1
276 261 273 1
277 262 274 1
278 264 275 1
279 264 276 1
280 265 277 1
281 265 278 1
@<TRIPOS>SUBSTRUCTURE
1	GLU1	1	RESIDUE	1 ****	GLU
2	ASN2	16	RESIDUE	1 ****	ASN
3	PRO3	30	RESIDUE	1 ****	PRO
4	GLU4	44	RESIDUE	1 ****	GLU
5	TRP5	59	RESIDUE	1 ****	TRP
6	ILE6	83	RESIDUE	1 ****	ILE
7	LEU7	102	RESIDUE	1 ****	LEU
8	ASP8	121	RESIDUE	1 ****	ASP
9	GLU9	133	RESIDUE	1 ****	GLU
10	HIS10	148	RESIDUE	1 ****	HIS
11	VAL11	165	RESIDUE	1 ****	VAL
12	GLN12	181	RESIDUE	1 ****	GLN
13	ARG13	198	RESIDUE	1 ****	ARG
14	VAL14	222	RESIDUE	1 ****	VAL
15	MET15	238	RESIDUE	1 ****	MET
16	ARG16	255	RESIDUE	1 ****	ARG
