@<TRIPOS>MOLECULE
7-19
268 269 16              
SMALL
USER_CHARGES
@<TRIPOS>ATOM
1	   N	1173.748	335.137	-1165.071	N.3	1	GLU1	-0.516	
2	  CA	1174.307	336.486	-1165.071	C.3	1	GLU1	0.040	
3	   C	1175.816	336.446	-1165.071	C.2	1	GLU1	0.537	
4	   O	1176.492	337.145	-1165.840	O.2	1	GLU1	-0.582	
5	  CB	1173.784	337.271	-1163.834	C.3	1	GLU1	0.056	
6	  CG	1174.259	338.756	-1163.723	C.3	1	GLU1	0.014	
7	  CD	1173.835	339.560	-1162.508	C.2	1	GLU1	0.805	
8	 OE1	1173.107	339.058	-1161.630	O.co2	1	GLU1	-0.819	
9	 OE2	1174.265	340.730	-1162.436	O.co2	1	GLU1	-0.819	
10	   H	1174.375	334.258	-1165.071	 H	1	GLU1	0.294	
11	  HA	1173.981	337.004	-1165.991	 H	1	GLU1	0.111	
12	 2HB	1174.073	336.740	-1162.904	 H	1	GLU1	-0.017	
13	 3HB	1172.677	337.261	-1163.821	 H	1	GLU1	-0.017	
14	 2HG	1173.949	339.341	-1164.604	 H	1	GLU1	-0.043	
15	 3HG	1175.359	338.823	-1163.694	 H	1	GLU1	-0.043	
16	   N	1176.421	335.661	-1164.246	N.am	2	ASN2	-0.416	
17	  CA	1177.880	335.622	-1164.246	C.3	2	ASN2	0.014	
18	   C	1178.411	335.266	-1165.615	C.2	2	ASN2	0.597	
19	   O	1179.326	335.897	-1166.144	O.2	2	ASN2	-0.568	
20	  CB	1178.372	334.599	-1163.182	C.3	2	ASN2	-0.204	
21	  CG	1177.909	334.823	-1161.738	C.2	2	ASN2	0.713	
22	 ND2	1178.503	335.738	-1161.020	N.pl3	2	ASN2	-0.919	
23	 OD1	1176.988	334.189	-1161.244	O.2	2	ASN2	-0.593	
24	   H	1175.893	335.081	-1163.610	 H	2	ASN2	0.272	
25	  HA	1178.257	336.632	-1164.001	 H	2	ASN2	0.105	
26	 2HB	1179.477	334.540	-1163.185	 H	2	ASN2	0.080	
27	 3HB	1178.043	333.581	-1163.468	 H	2	ASN2	0.080	
28	1HD2	1178.023	335.911	-1160.134	 H	2	ASN2	0.420	
29	2HD2	1179.205	336.309	-1161.490	 H	2	ASN2	0.420	
30	   N	1177.890	334.271	-1166.249	N.am	3	PRO3	-0.255	
31	  CA	1178.341	333.862	-1167.570	C.3	3	PRO3	-0.027	
32	   C	1177.943	334.885	-1168.647	C.2	3	PRO3	0.590	
33	   O	1178.766	335.269	-1169.479	O.2	3	PRO3	-0.575	
34	  CB	1177.637	332.507	-1167.740	C.3	3	PRO3	-0.007	
35	  CG	1176.354	332.659	-1166.910	C.3	3	PRO3	0.019	
36	  CD	1176.812	333.478	-1165.700	C.3	3	PRO3	0.019	
37	  HA	1179.427	333.742	-1167.584	 H	3	PRO3	0.064	
38	 2HB	1178.260	331.726	-1167.299	 H	3	PRO3	0.025	
39	 3HB	1177.439	332.259	-1168.785	 H	3	PRO3	0.025	
40	 2HG	1175.927	331.697	-1166.618	 H	3	PRO3	0.021	
41	 3HG	1175.616	333.230	-1167.477	 H	3	PRO3	0.021	
42	 2HD	1177.201	332.829	-1164.912	 H	3	PRO3	0.039	
43	 3HD	1176.015	334.114	-1165.307	 H	3	PRO3	0.039	
44	   N	1176.739	335.346	-1168.680	N.am	4	GLU4	-0.516	
45	  CA	1176.379	336.317	-1169.709	C.3	4	GLU4	0.040	
46	   C	1177.278	337.528	-1169.648	C.2	4	GLU4	0.537	
47	   O	1177.804	338.007	-1170.662	O.2	4	GLU4	-0.582	
48	  CB	1174.890	336.735	-1169.539	C.3	4	GLU4	0.056	
49	  CG	1174.342	337.739	-1170.604	C.3	4	GLU4	0.014	
50	  CD	1172.915	338.235	-1170.460	C.2	4	GLU4	0.805	
51	 OE1	1172.189	337.837	-1169.529	O.co2	4	GLU4	-0.819	
52	 OE2	1172.526	339.065	-1171.308	O.co2	4	GLU4	-0.819	
53	   H	1176.054	335.039	-1168.003	 H	4	GLU4	0.294	
54	  HA	1176.510	335.846	-1170.700	 H	4	GLU4	0.111	
55	 2HB	1174.738	337.175	-1168.532	 H	4	GLU4	-0.017	
56	 3HB	1174.242	335.837	-1169.545	 H	4	GLU4	-0.017	
57	 2HG	1174.423	337.324	-1171.622	 H	4	GLU4	-0.043	
58	 3HG	1174.930	338.671	-1170.615	 H	4	GLU4	-0.043	
59	   N	1177.505	338.081	-1168.505	N.am	5	SER5	-0.416	
60	  CA	1178.375	339.252	-1168.446	C.3	5	SER5	-0.025	
61	   C	1179.733	338.946	-1169.032	C.2	5	SER5	0.597	
62	   O	1180.280	339.700	-1169.837	O.2	5	SER5	-0.568	
63	  CB	1178.486	339.784	-1166.996	C.3	5	SER5	0.212	
64	  OG	1179.218	338.905	-1166.135	O.3	5	SER5	-0.655	
65	   H	1177.088	337.709	-1167.663	 H	5	SER5	0.272	
66	  HA	1177.925	340.042	-1169.075	 H	5	SER5	0.084	
67	 2HB	1177.486	339.978	-1166.562	 H	5	SER5	0.035	
68	 3HB	1178.991	340.770	-1166.998	 H	5	SER5	0.035	
69	  HG	1178.729	338.080	-1166.084	 H	5	SER5	0.428	
70	   N	1180.338	337.863	-1168.678	N.am	6	ILE6	-0.416	
71	  CA	1181.651	337.569	-1169.245	C.3	6	ILE6	-0.060	
72	   C	1181.594	337.531	-1170.752	C.2	6	ILE6	0.597	
73	   O	1182.429	338.119	-1171.456	O.2	6	ILE6	-0.568	
74	  CB	1182.251	336.232	-1168.645	C.3	6	ILE6	0.130	
75	 CG1	1182.271	336.170	-1167.084	C.3	6	ILE6	-0.043	
76	 CG2	1183.692	335.931	-1169.160	C.3	6	ILE6	-0.320	
77	 CD1	1182.541	334.781	-1166.469	C.3	6	ILE6	-0.066	
78	   H	1179.910	337.229	-1168.019	 H	6	ILE6	0.272	
79	  HA	1182.325	338.403	-1168.977	 H	6	ILE6	0.087	
80	  HB	1181.593	335.406	-1168.989	 H	6	ILE6	0.019	
81	2HG1	1181.288	336.490	-1166.688	 H	6	ILE6	0.024	
82	3HG1	1182.986	336.912	-1166.679	 H	6	ILE6	0.024	
83	1HG2	1183.751	335.838	-1170.259	 H	6	ILE6	0.088	
84	2HG2	1184.414	336.713	-1168.858	 H	6	ILE6	0.088	
85	3HG2	1184.083	334.969	-1168.782	 H	6	ILE6	0.088	
86	1HD1	1181.813	334.027	-1166.824	 H	6	ILE6	0.019	
87	2HD1	1183.551	334.402	-1166.705	 H	6	ILE6	0.019	
88	3HD1	1182.465	334.811	-1165.366	 H	6	ILE6	0.019	
89	   N	1180.648	336.868	-1171.326	N.am	7	LYS7	-0.348	
90	  CA	1180.592	336.831	-1172.785	C.3	7	LYS7	-0.240	
91	   C	1180.519	338.227	-1173.359	C.2	7	LYS7	0.734	
92	   O	1181.239	338.588	-1174.301	O.2	7	LYS7	-0.589	
93	  CB	1179.372	335.981	-1173.234	C.3	7	LYS7	-0.009	
94	  CG	1179.268	335.818	-1174.771	C.3	7	LYS7	0.019	
95	  CD	1178.040	335.040	-1175.254	C.3	7	LYS7	-0.048	
96	  CE	1178.027	335.019	-1176.788	C.3	7	LYS7	-0.014	
97	  NZ	1176.949	334.130	-1177.256	N.4	7	LYS7	-0.385	
98	   H	1179.956	336.381	-1170.775	 H	7	LYS7	0.275	
99	  HA	1181.523	336.367	-1173.158	 H	7	LYS7	0.143	
100	 2HB	1178.438	336.432	-1172.839	 H	7	LYS7	0.036	
101	 3HB	1179.424	334.978	-1172.766	 H	7	LYS7	0.036	
102	 2HG	1180.191	335.344	-1175.158	 H	7	LYS7	0.010	
103	 3HG	1179.220	336.810	-1175.258	 H	7	LYS7	0.010	
104	 2HD	1177.117	335.520	-1174.870	 H	7	LYS7	0.062	
105	 3HD	1178.057	334.016	-1174.835	 H	7	LYS7	0.062	
106	 2HE	1178.999	334.667	-1177.192	 H	7	LYS7	0.113	
107	 3HE	1177.885	336.044	-1177.190	 H	7	LYS7	0.113	
108	 1HZ	1176.126	334.207	-1176.646	 H	7	LYS7	0.340	
109	 2HZ	1176.632	334.390	-1178.196	 H	7	LYS7	0.340	
110	 3HZ	1177.329	333.194	-1177.251	 H	7	LYS7	0.340	
111	   N	1179.682	339.068	-1172.853	N.am	8	ASP8	-0.516	
112	  CA	1179.611	340.417	-1173.407	C.3	8	ASP8	0.038	
113	   C	1180.957	341.097	-1173.352	C.2	8	ASP8	0.537	
114	   O	1181.430	341.701	-1174.327	O.2	8	ASP8	-0.582	
115	  CB	1178.533	341.256	-1172.666	C.3	8	ASP8	-0.030	
116	  CG	1178.314	342.676	-1173.208	C.2	8	ASP8	0.799	
117	 OD1	1178.377	342.874	-1174.439	O.co2	8	ASP8	-0.801	
118	 OD2	1178.122	343.603	-1172.393	O.co2	8	ASP8	-0.801	
119	   H	1179.085	338.797	-1172.085	 H	8	ASP8	0.294	
120	  HA	1179.328	340.338	-1174.474	 H	8	ASP8	0.088	
121	 2HB	1178.791	341.341	-1171.594	 H	8	ASP8	-0.012	
122	 3HB	1177.554	340.751	-1172.698	 H	8	ASP8	-0.012	
123	   N	1181.638	341.048	-1172.257	N.am	9	GLU9	-0.516	
124	  CA	1182.940	341.706	-1172.203	C.3	9	GLU9	0.040	
125	   C	1183.858	341.178	-1173.279	C.2	9	GLU9	0.537	
126	   O	1184.521	341.932	-1174.005	O.2	9	GLU9	-0.582	
127	  CB	1183.575	341.500	-1170.798	C.3	9	GLU9	0.056	
128	  CG	1184.957	342.193	-1170.570	C.3	9	GLU9	0.014	
129	  CD	1185.660	341.982	-1169.242	C.2	9	GLU9	0.805	
130	 OE1	1185.139	341.291	-1168.344	O.co2	9	GLU9	-0.819	
131	 OE2	1186.779	342.520	-1169.111	O.co2	9	GLU9	-0.819	
132	   H	1181.275	340.563	-1171.449	 H	9	GLU9	0.294	
133	  HA	1182.798	342.788	-1172.379	 H	9	GLU9	0.111	
134	 2HB	1183.688	340.416	-1170.593	 H	9	GLU9	-0.017	
135	 3HB	1182.878	341.854	-1170.013	 H	9	GLU9	-0.017	
136	 2HG	1184.885	343.284	-1170.711	 H	9	GLU9	-0.043	
137	 3HG	1185.703	341.848	-1171.304	 H	9	GLU9	-0.043	
138	   N	1183.955	339.902	-1173.447	N.am	10	HIS10	-0.416	
139	  CA	1184.843	339.390	-1174.487	C.3	10	HIS10	-0.058	
140	   C	1184.475	339.954	-1175.839	C.2	10	HIS10	0.597	
141	   O	1185.327	340.418	-1176.611	O.2	10	HIS10	-0.568	
142	  CB	1184.679	337.861	-1174.481	C.3	10	HIS10	-0.007	
143	  CG	1185.965	337.152	-1174.173	C.2	10	HIS10	0.187	
144	 CD2	1186.347	336.818	-1172.880	C.2	10	HIS10	-0.221	
145	 ND1	1186.917	336.746	-1175.105	N.2	10	HIS10	-0.543	
146	 CE1	1187.824	336.189	-1174.282	C.2	10	HIS10	0.163	
147	 NE2	1187.562	336.187	-1172.947	N.pl3	10	HIS10	-0.280	
148	   H	1183.425	339.267	-1172.867	 H	10	HIS10	0.272	
149	  HA	1185.861	339.748	-1174.263	 H	10	HIS10	0.136	
150	 2HB	1184.313	337.494	-1175.460	 H	10	HIS10	0.037	
151	 3HB	1183.924	337.525	-1173.740	 H	10	HIS10	0.037	
152	 2HD	1185.762	337.034	-1171.991	 H	10	HIS10	0.186	
153	 1HE	1188.715	335.768	-1174.729	 H	10	HIS10	0.144	
154	 2HE	1188.129	335.811	-1172.173	 H	10	HIS10	0.334	
155	   N	1183.237	339.952	-1176.201	N.am	11	VAL11	-0.416	
156	  CA	1182.881	340.496	-1177.508	C.3	11	VAL11	-0.087	
157	   C	1183.345	341.927	-1177.642	C.2	11	VAL11	0.597	
158	   O	1183.945	342.332	-1178.646	O.2	11	VAL11	-0.568	
159	  CB	1181.319	340.389	-1177.727	C.3	11	VAL11	0.299	
160	 CG1	1180.750	341.092	-1178.990	C.3	11	VAL11	-0.319	
161	 CG2	1180.795	338.935	-1177.799	C.3	11	VAL11	-0.319	
162	   H	1182.524	339.579	-1175.590	 H	11	VAL11	0.272	
163	  HA	1183.400	339.914	-1178.290	 H	11	VAL11	0.097	
164	  HB	1180.832	340.870	-1176.852	 H	11	VAL11	-0.030	
165	1HG1	1181.188	340.699	-1179.927	 H	11	VAL11	0.079	
166	2HG1	1179.651	340.984	-1179.071	 H	11	VAL11	0.079	
167	3HG1	1180.928	342.184	-1178.982	 H	11	VAL11	0.079	
168	1HG2	1181.086	338.348	-1176.908	 H	11	VAL11	0.079	
169	2HG2	1179.690	338.897	-1177.841	 H	11	VAL11	0.079	
170	3HG2	1181.177	338.393	-1178.685	 H	11	VAL11	0.079	
171	   N	1183.108	342.754	-1176.680	N.am	12	GLN12	-0.416	
172	  CA	1183.555	344.137	-1176.809	C.3	12	GLN12	-0.003	
173	   C	1185.045	344.205	-1177.047	C.2	12	GLN12	0.597	
174	   O	1185.531	344.912	-1177.927	O.2	12	GLN12	-0.568	
175	  CB	1183.165	344.905	-1175.526	C.3	12	GLN12	-0.004	
176	  CG	1183.524	346.427	-1175.496	C.3	12	GLN12	-0.064	
177	  CD	1183.222	347.241	-1174.232	C.2	12	GLN12	0.695	
178	 NE2	1182.656	346.665	-1173.203	N.pl3	12	GLN12	-0.941	
179	 OE1	1183.523	348.422	-1174.156	O.2	12	GLN12	-0.609	
180	   H	1182.619	342.448	-1175.851	 H	12	GLN12	0.272	
181	  HA	1183.055	344.592	-1177.684	 H	12	GLN12	0.085	
182	 2HB	1183.641	344.406	-1174.657	 H	12	GLN12	0.017	
183	 3HB	1182.075	344.797	-1175.362	 H	12	GLN12	0.017	
184	 2HG	1183.046	346.947	-1176.347	 H	12	GLN12	0.035	
185	 3HG	1184.608	346.569	-1175.663	 H	12	GLN12	0.035	
186	1HE2	1182.549	347.260	-1172.379	 H	12	GLN12	0.425	
187	2HE2	1182.493	345.661	-1173.305	 H	12	GLN12	0.425	
188	   N	1185.831	343.499	-1176.306	N.am	13	ARG13	-0.348	
189	  CA	1187.271	343.565	-1176.538	C.3	13	ARG13	-0.264	
190	   C	1187.606	343.193	-1177.963	C.2	13	ARG13	0.734	
191	   O	1188.374	343.864	-1178.648	O.2	13	ARG13	-0.589	
192	  CB	1187.985	342.628	-1175.523	C.3	13	ARG13	-0.001	
193	  CG	1189.530	342.782	-1175.443	C.3	13	ARG13	0.039	
194	  CD	1190.158	341.796	-1174.445	C.3	13	ARG13	0.049	
195	  NE	1191.635	342.004	-1174.396	N.pl3	13	ARG13	-0.530	
196	  CZ	1192.484	341.314	-1173.640	C.cat	13	ARG13	0.808	
197	 NH1	1192.120	340.350	-1172.842	N.pl3	13	ARG13	-0.863	
198	 NH2	1193.744	341.613	-1173.698	N.pl3	13	ARG13	-0.863	
199	   H	1185.455	342.909	-1175.577	 H	13	ARG13	0.275	
200	  HA	1187.594	344.612	-1176.380	 H	13	ARG13	0.156	
201	 2HB	1187.719	341.577	-1175.761	 H	13	ARG13	0.033	
202	 3HB	1187.560	342.795	-1174.513	 H	13	ARG13	0.033	
203	 2HG	1189.777	343.827	-1175.165	 H	13	ARG13	0.029	
204	 3HG	1189.980	342.625	-1176.445	 H	13	ARG13	0.029	
205	 2HD	1189.915	340.755	-1174.753	 H	13	ARG13	0.069	
206	 3HD	1189.702	341.942	-1173.442	 H	13	ARG13	0.069	
207	  HE	1192.086	342.726	-1174.967	 H	13	ARG13	0.346	
208	1HH1	1191.115	340.163	-1172.844	 H	13	ARG13	0.448	
209	2HH1	1192.834	339.868	-1172.293	 H	13	ARG13	0.448	
210	1HH2	1194.010	342.371	-1174.330	 H	13	ARG13	0.448	
211	2HH2	1194.380	341.073	-1173.109	 H	13	ARG13	0.448	
212	   N	1187.071	342.137	-1178.476	N.am	14	VAL14	-0.416	
213	  CA	1187.395	341.777	-1179.853	C.3	14	VAL14	-0.087	
214	   C	1187.064	342.906	-1180.800	C.2	14	VAL14	0.597	
215	   O	1187.857	343.287	-1181.670	O.2	14	VAL14	-0.568	
216	  CB	1186.623	340.459	-1180.258	C.3	14	VAL14	0.299	
217	 CG1	1186.712	340.040	-1181.752	C.3	14	VAL14	-0.319	
218	 CG2	1187.056	339.208	-1179.457	C.3	14	VAL14	-0.319	
219	   H	1186.436	341.569	-1177.933	 H	14	VAL14	0.272	
220	  HA	1188.483	341.601	-1179.928	 H	14	VAL14	0.097	
221	  HB	1185.547	340.630	-1180.042	 H	14	VAL14	-0.030	
222	1HG1	1187.753	339.863	-1182.081	 H	14	VAL14	0.079	
223	2HG1	1186.139	339.116	-1181.963	 H	14	VAL14	0.079	
224	3HG1	1186.282	340.801	-1182.430	 H	14	VAL14	0.079	
225	1HG2	1186.970	339.367	-1178.367	 H	14	VAL14	0.079	
226	2HG2	1186.421	338.331	-1179.688	 H	14	VAL14	0.079	
227	3HG2	1188.104	338.919	-1179.663	 H	14	VAL14	0.079	
228	   N	1185.919	343.491	-1180.698	N.am	15	MET15	-0.416	
229	  CA	1185.597	344.583	-1181.612	C.3	15	MET15	-0.024	
230	   C	1186.626	345.684	-1181.526	C.2	15	MET15	0.597	
231	   O	1187.128	346.194	-1182.540	O.2	15	MET15	-0.568	
232	  CB	1184.175	345.128	-1181.303	C.3	15	MET15	0.034	
233	  CG	1183.014	344.129	-1181.494	C.3	15	MET15	0.002	
234	  SD	1181.440	344.994	-1181.380	S.3	15	MET15	-0.274	
235	  CE	1180.359	343.563	-1181.242	C.3	15	MET15	-0.054	
236	   H	1185.254	343.199	-1179.996	 H	15	MET15	0.272	
237	  HA	1185.623	344.195	-1182.648	 H	15	MET15	0.088	
238	 2HB	1183.972	346.006	-1181.947	 H	15	MET15	0.024	
239	 3HB	1184.140	345.521	-1180.268	 H	15	MET15	0.024	
240	 2HG	1183.058	343.344	-1180.715	 H	15	MET15	0.044	
241	 3HG	1183.077	343.612	-1182.470	 H	15	MET15	0.044	
242	 1HE	1180.503	342.874	-1182.093	 H	15	MET15	0.068	
243	 2HE	1180.569	343.012	-1180.308	 H	15	MET15	0.068	
244	 3HE	1179.302	343.878	-1181.225	 H	15	MET15	0.068	
245	   N	1186.995	346.106	-1180.364	N.am	16	ARG16	-0.348	
246	  CA	1187.991	347.171	-1180.282	C.3	16	ARG16	-0.264	
247	   C	1189.262	346.778	-1180.999	C.2	16	ARG16	0.734	
248	   O	1189.376	345.701	-1181.579	O.2	16	ARG16	-0.589	
249	  CB	1188.260	347.490	-1178.784	C.3	16	ARG16	-0.001	
250	  CG	1189.085	348.780	-1178.513	C.3	16	ARG16	0.039	
251	  CD	1189.335	349.001	-1177.012	C.3	16	ARG16	0.049	
252	  NE	1190.110	350.261	-1176.813	N.pl3	16	ARG16	-0.530	
253	  CZ	1190.502	350.744	-1175.637	C.cat	16	ARG16	0.808	
254	 NH1	1190.255	350.161	-1174.498	N.pl3	16	ARG16	-0.863	
255	 NH2	1191.165	351.858	-1175.620	N.pl3	16	ARG16	-0.863	
256	   H	1186.601	345.706	-1179.525	 H	16	ARG16	0.275	
257	  HA	1187.581	348.063	-1180.792	 H	16	ARG16	0.156	
258	 2HB	1188.758	346.615	-1178.317	 H	16	ARG16	0.033	
259	 3HB	1187.292	347.571	-1178.250	 H	16	ARG16	0.033	
260	 2HG	1188.553	349.650	-1178.951	 H	16	ARG16	0.029	
261	 3HG	1190.058	348.727	-1179.042	 H	16	ARG16	0.029	
262	 2HD	1189.885	348.127	-1176.598	 H	16	ARG16	0.069	
263	 3HD	1188.363	349.043	-1176.476	 H	16	ARG16	0.069	
264	  HE	1190.388	350.841	-1177.610	 H	16	ARG16	0.346	
265	1HH1	1189.730	349.287	-1174.582	 H	16	ARG16	0.448	
266	2HH1	1190.590	350.597	-1173.638	 H	16	ARG16	0.448	
267	1HH2	1191.350	352.300	-1176.523	 H	16	ARG16	0.448	
268	2HH2	1191.455	352.214	-1174.708	 H	16	ARG16	0.448	
@<TRIPOS>BOND
1 1 2 1
2 1 10 1
3 2 3 1
4 2 5 1
5 2 11 1
6 3 4 2
7 3 16 1
8 5 6 1
9 6 7 1
10 7 8 2
11 7 9 1
12 5 12 1
13 5 13 1
14 6 14 1
15 6 15 1
16 16 17 1
17 16 24 1
18 17 18 1
19 17 20 1
20 17 25 1
21 18 19 2
22 18 30 1
23 20 21 1
24 21 22 1
25 21 23 2
26 20 26 1
27 20 27 1
28 22 28 1
29 22 29 1
30 30 31 1
31 30 36 1
32 31 32 1
33 31 34 1
34 31 37 1
35 32 33 2
36 32 44 1
37 34 35 1
38 35 36 1
39 34 38 1
40 34 39 1
41 35 40 1
42 35 41 1
43 36 42 1
44 36 43 1
45 44 45 1
46 44 53 1
47 45 46 1
48 45 48 1
49 45 54 1
50 46 47 2
51 46 59 1
52 48 49 1
53 49 50 1
54 50 51 2
55 50 52 1
56 48 55 1
57 48 56 1
58 49 57 1
59 49 58 1
60 59 60 1
61 59 65 1
62 60 61 1
63 60 63 1
64 60 66 1
65 61 62 2
66 61 70 1
67 63 64 1
68 63 67 1
69 63 68 1
70 64 69 1
71 70 71 1
72 70 78 1
73 71 72 1
74 71 74 1
75 71 79 1
76 72 73 2
77 72 89 1
78 74 75 1
79 74 76 1
80 75 77 1
81 74 80 1
82 75 81 1
83 75 82 1
84 76 83 1
85 76 84 1
86 76 85 1
87 77 86 1
88 77 87 1
89 77 88 1
90 89 90 1
91 89 98 1
92 90 91 1
93 90 93 1
94 90 99 1
95 91 92 2
96 91 111 1
97 93 94 1
98 94 95 1
99 95 96 1
100 96 97 1
101 97 110 1
102 93 100 1
103 93 101 1
104 94 102 1
105 94 103 1
106 95 104 1
107 95 105 1
108 96 106 1
109 96 107 1
110 97 108 1
111 97 109 1
112 111 112 1
113 111 119 1
114 112 113 1
115 112 115 1
116 112 120 1
117 113 114 2
118 113 123 1
119 115 116 1
120 116 117 2
121 116 118 1
122 115 121 1
123 115 122 1
124 123 124 1
125 123 132 1
126 124 125 1
127 124 127 1
128 124 133 1
129 125 126 2
130 125 138 1
131 127 128 1
132 128 129 1
133 129 130 2
134 129 131 1
135 127 134 1
136 127 135 1
137 128 136 1
138 128 137 1
139 138 139 1
140 138 148 1
141 139 140 1
142 139 142 1
143 139 149 1
144 140 141 2
145 140 155 1
146 142 143 1
147 143 144 2
148 144 147 1
149 143 145 1
150 145 146 2
151 146 147 1
152 142 150 1
153 142 151 1
154 144 152 1
155 146 153 1
156 147 154 1
157 155 156 1
158 155 162 1
159 156 157 1
160 156 159 1
161 156 163 1
162 157 158 2
163 157 171 1
164 159 160 1
165 159 161 1
166 159 164 1
167 160 165 1
168 160 166 1
169 160 167 1
170 161 168 1
171 161 169 1
172 161 170 1
173 171 172 1
174 171 180 1
175 172 173 1
176 172 175 1
177 172 181 1
178 173 174 2
179 173 188 1
180 175 176 1
181 176 177 1
182 177 178 1
183 177 179 2
184 175 182 1
185 175 183 1
186 176 184 1
187 176 185 1
188 178 186 1
189 178 187 1
190 188 189 1
191 188 199 1
192 189 190 1
193 189 192 1
194 189 200 1
195 190 191 2
196 190 212 1
197 192 193 1
198 193 194 1
199 194 195 1
200 195 196 1
201 196 197 2
202 196 198 1
203 192 201 1
204 192 202 1
205 193 203 1
206 193 204 1
207 194 205 1
208 194 206 1
209 195 207 1
210 197 208 1
211 197 209 1
212 198 210 1
213 198 211 1
214 212 213 1
215 212 219 1
216 213 214 1
217 213 216 1
218 213 220 1
219 214 215 2
220 214 228 1
221 216 217 1
222 216 218 1
223 216 221 1
224 217 222 1
225 217 223 1
226 217 224 1
227 218 225 1
228 218 226 1
229 218 227 1
230 228 229 1
231 228 236 1
232 229 230 1
233 229 232 1
234 229 237 1
235 230 231 2
236 230 245 1
237 232 233 1
238 233 234 1
239 234 235 1
240 232 238 1
241 232 239 1
242 233 240 1
243 233 241 1
244 235 242 1
245 235 243 1
246 235 244 1
247 245 246 1
248 245 256 1
249 246 247 1
250 246 249 1
251 246 257 1
252 247 248 2
253 249 250 1
254 250 251 1
255 251 252 1
256 252 253 1
257 253 254 2
258 253 255 1
259 249 258 1
260 249 259 1
261 250 260 1
262 250 261 1
263 251 262 1
264 251 263 1
265 252 264 1
266 254 265 1
267 254 266 1
268 255 267 1
269 255 268 1
@<TRIPOS>SUBSTRUCTURE
1	GLU1	1	RESIDUE	1 ****	GLU
2	ASN2	16	RESIDUE	1 ****	ASN
3	PRO3	30	RESIDUE	1 ****	PRO
4	GLU4	44	RESIDUE	1 ****	GLU
5	SER5	59	RESIDUE	1 ****	SER
6	ILE6	70	RESIDUE	1 ****	ILE
7	LYS7	89	RESIDUE	1 ****	LYS
8	ASP8	111	RESIDUE	1 ****	ASP
9	GLU9	123	RESIDUE	1 ****	GLU
10	HIS10	138	RESIDUE	1 ****	HIS
11	VAL11	155	RESIDUE	1 ****	VAL
12	GLN12	171	RESIDUE	1 ****	GLN
13	ARG13	188	RESIDUE	1 ****	ARG
14	VAL14	212	RESIDUE	1 ****	VAL
15	MET15	228	RESIDUE	1 ****	MET
16	ARG16	245	RESIDUE	1 ****	ARG
