REMARK WARNING: 32 MAX_TORS EXCEEDED!!!
REMARK  69 active torsions:
REMARK  status: ('A' for Active; 'I' for Inactive)
REMARK    1  A    between atoms: N_1  and  CA_2 
REMARK    2  A    between atoms: CA_2  and  C_3 
REMARK    3  A    between atoms: CA_2  and  CB_5 
REMARK       I    between atoms: C_3  and  N_11 
REMARK    4  A    between atoms: CB_5  and  CG_6 
REMARK    5  A    between atoms: CG_6  and  CD_7 
REMARK    6  A    between atoms: N_11  and  CA_12 
REMARK    7  A    between atoms: CA_12  and  C_13 
REMARK    8  A    between atoms: CA_12  and  CB_15 
REMARK       I    between atoms: C_13  and  N_22 
REMARK    9  A    between atoms: CB_15  and  CG_16 
REMARK       I    between atoms: CG_16  and  ND2_17 
REMARK   10  A    between atoms: CA_23  and  C_24 
REMARK       I    between atoms: C_24  and  N_29 
REMARK   11  A    between atoms: N_29  and  CA_30 
REMARK   12  A    between atoms: CA_30  and  C_31 
REMARK   13  A    between atoms: CA_30  and  CB_33 
REMARK       I    between atoms: C_31  and  N_39 
REMARK   14  A    between atoms: CB_33  and  CG_34 
REMARK   15  A    between atoms: CG_34  and  CD_35 
REMARK   16  A    between atoms: N_39  and  CA_40 
REMARK   17  A    between atoms: CA_40  and  C_41 
REMARK   18  A    between atoms: CA_40  and  CB_43 
REMARK       I    between atoms: C_41  and  N_47 
REMARK   19  A    between atoms: CB_43  and  OG_44 
REMARK   20  A    between atoms: N_47  and  CA_48 
REMARK   21  A    between atoms: CA_48  and  C_49 
REMARK   22  A    between atoms: CA_48  and  CB_51 
REMARK       I    between atoms: C_49  and  N_56 
REMARK   23  A    between atoms: CB_51  and  CG1_52 
REMARK   24  A    between atoms: N_56  and  CA_57 
REMARK   25  A    between atoms: CA_57  and  C_58 
REMARK   26  A    between atoms: CA_57  and  CB_60 
REMARK       I    between atoms: C_58  and  N_65 
REMARK   27  A    between atoms: CB_60  and  CG_61 
REMARK   28  A    between atoms: N_65  and  CA_66 
REMARK   29  A    between atoms: CA_66  and  C_67 
REMARK   30  A    between atoms: CA_66  and  CB_69 
REMARK       I    between atoms: C_67  and  N_74 
REMARK   31  A    between atoms: CB_69  and  CG_70 
REMARK   32  A    between atoms: N_74  and  CA_75 
REMARK   33  A    between atoms: CA_75  and  C_76 
REMARK   34  A    between atoms: CA_75  and  CB_78 
REMARK       I    between atoms: C_76  and  N_91 
REMARK   35  A    between atoms: CB_78  and  CG_79 
REMARK   36  A    between atoms: CG_79  and  CD_80 
REMARK   37  A    between atoms: CD_80  and  NE_81 
REMARK       I    between atoms: NE_81  and  CZ_82 
REMARK       I    between atoms: CZ_82  and  NH1_83 
REMARK       I    between atoms: CZ_82  and  NH2_84 
REMARK   38  A    between atoms: N_91  and  CA_92 
REMARK   39  A    between atoms: CA_92  and  C_93 
REMARK   40  A    between atoms: CA_92  and  CB_95 
REMARK       I    between atoms: C_93  and  N_103 
REMARK   41  A    between atoms: CB_95  and  CG_96 
REMARK   42  A    between atoms: N_103  and  CA_104 
REMARK   43  A    between atoms: CA_104  and  C_105 
REMARK   44  A    between atoms: CA_104  and  CB_107 
REMARK       I    between atoms: C_105  and  N_111 
REMARK   45  A    between atoms: N_111  and  CA_112 
REMARK   46  A    between atoms: CA_112  and  C_113 
REMARK   47  A    between atoms: CA_112  and  CB_115 
REMARK       I    between atoms: C_113  and  N_123 
REMARK   48  A    between atoms: CB_115  and  CG_116 
REMARK   49  A    between atoms: CG_116  and  CD_117 
REMARK       I    between atoms: CD_117  and  NE2_118 
REMARK   50  A    between atoms: N_123  and  CA_124 
REMARK   51  A    between atoms: CA_124  and  C_125 
REMARK   52  A    between atoms: CA_124  and  CB_127 
REMARK       I    between atoms: C_125  and  N_140 
REMARK   53  A    between atoms: CB_127  and  CG_128 
REMARK   54  A    between atoms: CG_128  and  CD_129 
REMARK   55  A    between atoms: CD_129  and  NE_130 
REMARK       I    between atoms: NE_130  and  CZ_131 
REMARK       I    between atoms: CZ_131  and  NH1_132 
REMARK       I    between atoms: CZ_131  and  NH2_133 
REMARK   56  A    between atoms: N_140  and  CA_141 
REMARK   57  A    between atoms: CA_141  and  C_142 
REMARK   58  A    between atoms: CA_141  and  CB_144 
REMARK       I    between atoms: C_142  and  N_148 
REMARK   59  A    between atoms: N_148  and  CA_149 
REMARK   60  A    between atoms: CA_149  and  C_150 
REMARK   61  A    between atoms: CA_149  and  CB_152 
REMARK       I    between atoms: C_150  and  N_157 
REMARK   62  A    between atoms: CB_152  and  CG_153 
REMARK   63  A    between atoms: CG_153  and  SD_154 
REMARK   64  A    between atoms: N_157  and  CA_158 
REMARK   65  A    between atoms: CA_158  and  C_159 
REMARK   66  A    between atoms: CA_158  and  CB_161 
REMARK   67  A    between atoms: CB_161  and  CG_162 
REMARK   68  A    between atoms: CG_162  and  CD_163 
REMARK   69  A    between atoms: CD_163  and  NE_164 
REMARK       I    between atoms: NE_164  and  CZ_165 
REMARK       I    between atoms: CZ_165  and  NH1_166 
ROOT
ATOM      1  CA  ARG d   9    1518.486 452.012-1535.716  0.00  0.00     0.176 C 
ENDROOT
BRANCH   1   2
ATOM      2  N   ARG d   9    1517.184 451.354-1535.771  0.00  0.00    -0.346 N 
ATOM      3  C   ASP d   8    1516.504 451.404-1536.867  0.00  0.00     0.241 C 
ATOM      4  O   ASP d   8    1516.977 452.010-1537.841  0.00  0.00    -0.271 OA
ATOM      5  H   ARG d   9    1516.821 450.868-1534.964  0.00  0.00     0.163 HD
BRANCH   3   6
ATOM      6  CA  ASP d   8    1515.158 450.725-1536.924  0.00  0.00     0.186 C 
BRANCH   6   7
ATOM      7  N   ASP d   8    1515.228 449.375-1536.371  0.00  0.00    -0.346 N 
ATOM      8  C   LEU d   7    1516.065 448.534-1536.878  0.00  0.00     0.241 C 
ATOM      9  O   LEU d   7    1516.786 448.897-1537.819  0.00  0.00    -0.271 OA
ATOM     10  H   ASP d   8    1514.630 449.104-1535.603  0.00  0.00     0.163 HD
BRANCH   8  11
ATOM     11  CA  LEU d   7    1516.138 447.139-1536.305  0.00  0.00     0.177 C 
BRANCH  11  12
ATOM     12  N   LEU d   7    1516.193 447.175-1534.847  0.00  0.00    -0.346 N 
ATOM     13  C   ILE d   6    1517.139 447.838-1534.273  0.00  0.00     0.241 C 
ATOM     14  O   ILE d   6    1517.974 448.426-1534.977  0.00  0.00    -0.271 OA
ATOM     15  H   LEU d   7    1515.501 446.688-1534.295  0.00  0.00     0.163 HD
BRANCH  13  16
ATOM     16  CA  ILE d   6    1517.196 447.876-1532.765  0.00  0.00     0.180 C 
BRANCH  16  17
ATOM     17  N   ILE d   6    1515.883 448.170-1532.199  0.00  0.00    -0.346 N 
ATOM     18  C   SER d   5    1515.278 449.253-1532.553  0.00  0.00     0.243 C 
ATOM     19  O   SER d   5    1515.825 450.007-1533.358  0.00  0.00    -0.271 OA
ATOM     20  H   ILE d   6    1515.455 447.536-1531.540  0.00  0.00     0.163 HD
BRANCH  18  21
ATOM     21  CA  SER d   5    1513.920 449.559-1531.967  0.00  0.00     0.200 C 
BRANCH  21  22
ATOM     22  N   SER d   5    1513.050 448.387-1532.026  0.00  0.00    -0.344 N 
ATOM     23  C   GLU d   4    1512.823 447.835-1533.169  0.00  0.00     0.241 C 
ATOM     24  O   GLU d   4    1513.349 448.314-1534.183  0.00  0.00    -0.271 OA
ATOM     25  H   SER d   5    1512.633 448.016-1531.184  0.00  0.00     0.163 HD
BRANCH  23  26
ATOM     26  CA  GLU d   4    1511.924 446.623-1533.230  0.00  0.00     0.177 C 
BRANCH  26  27
ATOM     27  N   GLU d   4    1512.284 445.652-1532.200  0.00  0.00    -0.346 N 
ATOM     28  C   PRO d   3    1513.488 445.192-1532.168  0.00  0.00     0.241 C 
ATOM     29  O   PRO d   3    1514.312 445.576-1533.000  0.00  0.00    -0.271 OA
ATOM     30  H   GLU d   4    1511.599 445.346-1531.524  0.00  0.00     0.163 HD
BRANCH  28  31
ATOM     31  CA  PRO d   3    1513.886 444.169-1531.091  0.00  0.00     0.179 C 
ATOM     32  N   PRO d   3    1513.435 444.578-1529.770  0.00  0.00    -0.337 N 
ATOM     33  C   ASN d   2    1513.956 445.573-1529.136  0.00  0.00     0.243 C 
ATOM     34  CD  PRO d   3    1512.357 443.785-1529.221  0.00  0.00     0.127 C 
ATOM     35  O   ASN d   2    1514.871 446.204-1529.664  0.00  0.00    -0.271 OA
ATOM     36  CG  PRO d   3    1511.899 442.966-1530.430  0.00  0.00     0.022 C 
ATOM     37  CB  PRO d   3    1513.182 442.814-1531.260  0.00  0.00     0.037 C 
BRANCH  33  38
ATOM     38  CA  ASN d   2    1513.425 445.929-1527.767  0.00  0.00     0.185 C 
BRANCH  38  39
ATOM     39  N   ASN d   2    1511.966 445.967-1527.767  0.00  0.00    -0.346 N 
ATOM     40  C   GLU d   1    1511.361 446.753-1528.592  0.00  0.00     0.242 C 
ATOM     41  O   GLU d   1    1512.037 447.452-1529.361  0.00  0.00    -0.271 OA
ATOM     42  H   ASN d   2    1511.438 445.388-1527.130  0.00  0.00     0.163 HD
BRANCH  40  43
ATOM     43  CA  GLU d   1    1509.852 446.793-1528.592  0.00  0.00     0.191 C 
BRANCH  43  44
ATOM     44  N   GLU d   1    1509.293 445.444-1528.592  0.00  0.00    -0.326 NA
ATOM     45  H   GLU d   1    1509.920 444.565-1528.592  0.00  0.00     0.180 HD
ENDBRANCH  43  44
BRANCH  43  46
ATOM     46  CB  GLU d   1    1509.329 447.578-1527.355  0.00  0.00     0.047 C 
BRANCH  46  47
ATOM     47  CG  GLU d   1    1509.804 449.063-1527.244  0.00  0.00     0.116 C 
BRANCH  47  48
ATOM     48  CD  GLU d   1    1509.380 449.867-1526.029  0.00  0.00     0.172 C 
ATOM     49  OE1 GLU d   1    1508.652 449.365-1525.151  0.00  0.00    -0.648 OA
ATOM     50  OE2 GLU d   1    1509.810 451.037-1525.957  0.00  0.00    -0.648 OA
ENDBRANCH  47  48
ENDBRANCH  46  47
ENDBRANCH  43  46
ENDBRANCH  40  43
ENDBRANCH  38  39
BRANCH  38  51
ATOM     51  CB  ASN d   2    1513.917 444.906-1526.703  0.00  0.00     0.137 C 
BRANCH  51  52
ATOM     52  CG  ASN d   2    1513.454 445.130-1525.259  0.00  0.00     0.217 C 
ATOM     53  ND2 ASN d   2    1514.048 446.045-1524.541  0.00  0.00    -0.370 N 
ATOM     54 21HD ASN d   2    1513.568 446.218-1523.655  0.00  0.00     0.159 HD
ATOM     55 22HD ASN d   2    1514.750 446.616-1525.010  0.00  0.00     0.159 HD
ATOM     56  OD1 ASN d   2    1512.533 444.496-1524.765  0.00  0.00    -0.274 OA
ENDBRANCH  51  52
ENDBRANCH  38  51
ENDBRANCH  33  38
ENDBRANCH  28  31
ENDBRANCH  26  27
BRANCH  26  57
ATOM     57  CB  GLU d   4    1510.435 447.042-1533.059  0.00  0.00     0.045 C 
BRANCH  57  58
ATOM     58  CG  GLU d   4    1509.887 448.046-1534.125  0.00  0.00     0.116 C 
BRANCH  58  59
ATOM     59  CD  GLU d   4    1508.460 448.542-1533.981  0.00  0.00     0.172 C 
ATOM     60  OE1 GLU d   4    1507.734 448.144-1533.050  0.00  0.00    -0.648 OA
ATOM     61  OE2 GLU d   4    1508.071 449.372-1534.829  0.00  0.00    -0.648 OA
ENDBRANCH  58  59
ENDBRANCH  57  58
ENDBRANCH  26  57
ENDBRANCH  23  26
ENDBRANCH  21  22
BRANCH  21  62
ATOM     62  CB  SER d   5    1514.031 450.091-1530.516  0.00  0.00     0.199 C 
BRANCH  62  63
ATOM     63  OG  SER d   5    1514.763 449.211-1529.656  0.00  0.00    -0.398 OA
ATOM     64  HG  SER d   5    1514.274 448.386-1529.605  0.00  0.00     0.209 HD
ENDBRANCH  62  63
ENDBRANCH  21  62
ENDBRANCH  18  21
ENDBRANCH  16  17
BRANCH  16  65
ATOM     65  CB  ILE d   6    1517.796 446.539-1532.166  0.00  0.00     0.013 C 
ATOM     66  CG2 ILE d   6    1519.237 446.238-1532.681  0.00  0.00     0.012 C 
BRANCH  65  67
ATOM     67  CG1 ILE d   6    1517.816 446.477-1530.605  0.00  0.00     0.002 C 
ATOM     68  CD1 ILE d   6    1518.086 445.088-1529.990  0.00  0.00     0.005 C 
ENDBRANCH  65  67
ENDBRANCH  16  65
ENDBRANCH  13  16
ENDBRANCH  11  12
BRANCH  11  69
ATOM     69  CB  LEU d   7    1514.935 446.279-1536.786  0.00  0.00     0.038 C 
BRANCH  69  70
ATOM     70  CG  LEU d   7    1514.862 444.799-1536.319  0.00  0.00    -0.020 C 
ATOM     71  CD1 LEU d   7    1513.672 444.093-1536.985  0.00  0.00     0.009 C 
ATOM     72  CD2 LEU d   7    1516.156 444.020-1536.611  0.00  0.00     0.009 C 
ENDBRANCH  69  70
ENDBRANCH  11  69
ENDBRANCH   8  11
ENDBRANCH   6   7
BRANCH   6  73
ATOM     73  CB  ASP d   8    1514.080 451.563-1536.182  0.00  0.00     0.147 C 
BRANCH  73  74
ATOM     74  CG  ASP d   8    1513.861 452.984-1536.722  0.00  0.00     0.175 C 
ATOM     75  OD1 ASP d   8    1513.925 453.184-1537.953  0.00  0.00    -0.648 OA
ATOM     76  OD2 ASP d   8    1513.668 453.910-1535.906  0.00  0.00    -0.648 OA
ENDBRANCH  73  74
ENDBRANCH   6  73
ENDBRANCH   3   6
ENDBRANCH   1   2
BRANCH   1  77
ATOM     77  C   ARG d   9    1519.404 451.484-1536.793  0.00  0.00     0.241 C 
ATOM     78  O   ARG d   9    1520.062 452.232-1537.513  0.00  0.00    -0.271 OA
ATOM     79  N   HIS d  10    1519.500 450.209-1536.963  0.00  0.00    -0.346 N 
ATOM     80  H   HIS d  10    1518.970 449.573-1536.384  0.00  0.00     0.163 HD
BRANCH  79  81
ATOM     81  CA  HIS d  10    1520.387 449.697-1538.004  0.00  0.00     0.182 C 
BRANCH  81  82
ATOM     82  C   HIS d  10    1520.020 450.262-1539.355  0.00  0.00     0.241 C 
ATOM     83  O   HIS d  10    1520.871 450.726-1540.127  0.00  0.00    -0.271 OA
ATOM     84  N   VAL d  11    1518.781 450.261-1539.717  0.00  0.00    -0.346 N 
ATOM     85  H   VAL d  11    1518.069 449.888-1539.106  0.00  0.00     0.163 HD
BRANCH  84  86
ATOM     86  CA  VAL d  11    1518.425 450.807-1541.024  0.00  0.00     0.180 C 
BRANCH  86  87
ATOM     87  C   VAL d  11    1518.890 452.237-1541.157  0.00  0.00     0.241 C 
ATOM     88  O   VAL d  11    1519.490 452.642-1542.160  0.00  0.00    -0.271 OA
ATOM     89  N   GLN d  12    1518.653 453.063-1540.194  0.00  0.00    -0.346 N 
ATOM     90  H   GLN d  12    1518.165 452.757-1539.365  0.00  0.00     0.163 HD
BRANCH  89  91
ATOM     91  CA  GLN d  12    1519.102 454.446-1540.322  0.00  0.00     0.177 C 
BRANCH  91  92
ATOM     92  C   GLN d  12    1520.591 454.513-1540.561  0.00  0.00     0.241 C 
ATOM     93  O   GLN d  12    1521.078 455.222-1541.439  0.00  0.00    -0.271 OA
ATOM     94  N   ARG d  13    1521.377 453.806-1539.820  0.00  0.00    -0.346 N 
ATOM     95  H   ARG d  13    1521.001 453.217-1539.092  0.00  0.00     0.163 HD
BRANCH  94  96
ATOM     96  CA  ARG d  13    1522.817 453.872-1540.052  0.00  0.00     0.176 C 
BRANCH  96  97
ATOM     97  C   ARG d  13    1523.152 453.501-1541.477  0.00  0.00     0.241 C 
ATOM     98  O   ARG d  13    1523.920 454.173-1542.162  0.00  0.00    -0.271 OA
ATOM     99  N   VAL d  14    1522.616 452.447-1541.991  0.00  0.00    -0.346 N 
ATOM    100  H   VAL d  14    1521.981 451.878-1541.449  0.00  0.00     0.163 HD
BRANCH  99 101
ATOM    101  CA  VAL d  14    1522.939 452.087-1543.369  0.00  0.00     0.180 C 
BRANCH 101 102
ATOM    102  C   VAL d  14    1522.608 453.217-1544.314  0.00  0.00     0.241 C 
ATOM    103  O   VAL d  14    1523.401 453.599-1545.184  0.00  0.00    -0.271 OA
ATOM    104  N   MET d  15    1521.464 453.803-1544.211  0.00  0.00    -0.346 N 
ATOM    105  H   MET d  15    1520.799 453.510-1543.509  0.00  0.00     0.163 HD
BRANCH 104 106
ATOM    106  CA  MET d  15    1521.142 454.896-1545.125  0.00  0.00     0.177 C 
BRANCH 106 107
ATOM    107  C   MET d  15    1522.172 455.995-1545.038  0.00  0.00     0.241 C 
ATOM    108  O   MET d  15    1522.674 456.506-1546.051  0.00  0.00    -0.271 OA
ATOM    109  N   ARG d  16    1522.542 456.417-1543.876  0.00  0.00    -0.347 N 
ATOM    110  H   ARG d  16    1522.148 456.017-1543.036  0.00  0.00     0.163 HD
BRANCH 109 111
ATOM    111  CA  ARG d  16    1523.539 457.481-1543.793  0.00  0.00     0.162 C 
BRANCH 111 112
ATOM    112  C   ARG d  16    1524.809 457.088-1544.510  0.00  0.00     0.219 C 
ATOM    113  O   ARG d  16    1524.922 456.012-1545.092  0.00  0.00    -0.287 OA
ENDBRANCH 111 112
BRANCH 111 114
ATOM    114  CB  ARG d  16    1523.809 457.798-1542.295  0.00  0.00     0.035 C 
BRANCH 114 115
ATOM    115  CG  ARG d  16    1524.635 459.087-1542.023  0.00  0.00     0.023 C 
BRANCH 115 116
ATOM    116  CD  ARG d  16    1524.886 459.307-1540.522  0.00  0.00     0.138 C 
BRANCH 116 117
ATOM    117  NE  ARG d  16    1525.662 460.565-1540.321  0.00  0.00    -0.227 N 
ATOM    118  CZ  ARG d  16    1526.055 461.048-1539.146  0.00  0.00     0.665 C 
ATOM    119  NH1 ARG d  16    1525.808 460.463-1538.008  0.00  0.00    -0.235 N 
ATOM    120  NH2 ARG d  16    1526.719 462.160-1539.128  0.00  0.00    -0.235 N 
ATOM    121 11HH ARG d  16    1525.283 459.590-1538.091  0.00  0.00     0.174 HD
ATOM    122 12HH ARG d  16    1526.144 460.899-1537.147  0.00  0.00     0.174 HD
ATOM    123 21HH ARG d  16    1526.903 462.604-1540.030  0.00  0.00     0.174 HD
ATOM    124 22HH ARG d  16    1527.010 462.515-1538.216  0.00  0.00     0.174 HD
ATOM    125  HE  ARG d  16    1525.940 461.147-1541.119  0.00  0.00     0.177 HD
ENDBRANCH 116 117
ENDBRANCH 115 116
ENDBRANCH 114 115
ENDBRANCH 111 114
ENDBRANCH 109 111
ENDBRANCH 106 107
BRANCH 106 126
ATOM    126  CB  MET d  15    1519.721 455.441-1544.814  0.00  0.00     0.045 C 
BRANCH 126 127
ATOM    127  CG  MET d  15    1518.559 454.443-1545.005  0.00  0.00     0.076 C 
BRANCH 127 128
ATOM    128  SD  MET d  15    1516.985 455.309-1544.889  0.00  0.00    -0.173 SA
ATOM    129  CE  MET d  15    1515.904 453.879-1544.751  0.00  0.00     0.089 C 
ENDBRANCH 127 128
ENDBRANCH 126 127
ENDBRANCH 106 126
ENDBRANCH 104 106
ENDBRANCH 101 102
BRANCH 101 130
ATOM    130  CB  VAL d  14    1522.167 450.770-1543.775  0.00  0.00     0.009 C 
ATOM    131  CG1 VAL d  14    1522.255 450.352-1545.269  0.00  0.00     0.012 C 
ATOM    132  CG2 VAL d  14    1522.599 449.518-1542.975  0.00  0.00     0.012 C 
ENDBRANCH 101 130
ENDBRANCH  99 101
ENDBRANCH  96  97
BRANCH  96 133
ATOM    133  CB  ARG d  13    1523.531 452.934-1539.038  0.00  0.00     0.036 C 
BRANCH 133 134
ATOM    134  CG  ARG d  13    1525.076 453.087-1538.958  0.00  0.00     0.023 C 
BRANCH 134 135
ATOM    135  CD  ARG d  13    1525.704 452.100-1537.961  0.00  0.00     0.138 C 
BRANCH 135 136
ATOM    136  NE  ARG d  13    1527.181 452.307-1537.912  0.00  0.00    -0.227 N 
ATOM    137  CZ  ARG d  13    1528.030 451.616-1537.157  0.00  0.00     0.665 C 
ATOM    138  NH1 ARG d  13    1527.665 450.651-1536.359  0.00  0.00    -0.235 N 
ATOM    139  NH2 ARG d  13    1529.289 451.915-1537.215  0.00  0.00    -0.235 N 
ATOM    140 11HH ARG d  13    1526.660 450.465-1536.362  0.00  0.00     0.174 HD
ATOM    141 12HH ARG d  13    1528.379 450.168-1535.811  0.00  0.00     0.174 HD
ATOM    142 21HH ARG d  13    1529.556 452.673-1537.846  0.00  0.00     0.174 HD
ATOM    143 22HH ARG d  13    1529.925 451.374-1536.627  0.00  0.00     0.174 HD
ATOM    144  HE  ARG d  13    1527.632 453.029-1538.483  0.00  0.00     0.177 HD
ENDBRANCH 135 136
ENDBRANCH 134 135
ENDBRANCH 133 134
ENDBRANCH  96 133
ENDBRANCH  94  96
ENDBRANCH  91  92
BRANCH  91 145
ATOM    145  CB  GLN d  12    1518.712 455.213-1539.039  0.00  0.00     0.044 C 
BRANCH 145 146
ATOM    146  CG  GLN d  12    1519.072 456.735-1539.008  0.00  0.00     0.105 C 
BRANCH 146 147
ATOM    147  CD  GLN d  12    1518.770 457.548-1537.743  0.00  0.00     0.215 C 
ATOM    148  NE2 GLN d  12    1518.204 456.972-1536.713  0.00  0.00    -0.370 N 
ATOM    149 21HE GLN d  12    1518.097 457.566-1535.890  0.00  0.00     0.159 HD
ATOM    150 22HE GLN d  12    1518.041 455.968-1536.817  0.00  0.00     0.159 HD
ATOM    151  OE1 GLN d  12    1519.072 458.729-1537.665  0.00  0.00    -0.274 OA
ENDBRANCH 146 147
ENDBRANCH 145 146
ENDBRANCH  91 145
ENDBRANCH  89  91
ENDBRANCH  86  87
BRANCH  86 152
ATOM    152  CB  VAL d  11    1516.864 450.700-1541.242  0.00  0.00     0.009 C 
ATOM    153  CG1 VAL d  11    1516.294 451.404-1542.505  0.00  0.00     0.012 C 
ATOM    154  CG2 VAL d  11    1516.339 449.246-1541.315  0.00  0.00     0.012 C 
ENDBRANCH  86 152
ENDBRANCH  84  86
ENDBRANCH  81  82
BRANCH  81 155
ATOM    155  CB  HIS d  10    1520.223 448.168-1537.999  0.00  0.00     0.095 C 
BRANCH 155 156
ATOM    156  CG  HIS d  10    1521.509 447.458-1537.692  0.00  0.00     0.053 A 
ATOM    157  CD2 HIS d  10    1521.891 447.122-1536.400  0.00  0.00     0.116 A 
ATOM    158  NE2 HIS d  10    1523.105 446.491-1536.467  0.00  0.00    -0.359 N 
ATOM    159  CE1 HIS d  10    1523.367 446.493-1537.803  0.00  0.00     0.207 A 
ATOM    160  2HE HIS d  10    1523.673 446.113-1535.695  0.00  0.00     0.166 HD
ATOM    161  ND1 HIS d  10    1522.460 447.052-1538.625  0.00  0.00    -0.247 NA
ENDBRANCH 155 156
ENDBRANCH  81 155
ENDBRANCH  79  81
ENDBRANCH   1  77
BRANCH   1 162
ATOM    162  CB  ARG d   9    1519.095 451.802-1534.300  0.00  0.00     0.036 C 
BRANCH 162 163
ATOM    163  CG  ARG d   9    1520.348 452.663-1533.976  0.00  0.00     0.023 C 
BRANCH 163 164
ATOM    164  CD  ARG d   9    1520.905 452.367-1532.574  0.00  0.00     0.138 C 
BRANCH 164 165
ATOM    165  NE  ARG d   9    1522.091 453.235-1532.312  0.00  0.00    -0.227 N 
ATOM    166  CZ  ARG d   9    1522.815 453.230-1531.197  0.00  0.00     0.665 C 
ATOM    167  NH1 ARG d   9    1522.573 452.448-1530.182  0.00  0.00    -0.235 N 
ATOM    168  NH2 ARG d   9    1523.816 454.048-1531.110  0.00  0.00    -0.235 N 
ATOM    169 11HH ARG d   9    1521.772 451.827-1530.315  0.00  0.00     0.174 HD
ATOM    170 12HH ARG d   9    1523.177 452.506-1529.360  0.00  0.00     0.174 HD
ATOM    171 21HH ARG d   9    1523.991 454.653-1531.915  0.00  0.00     0.174 HD
ATOM    172 22HH ARG d   9    1524.359 454.031-1530.245  0.00  0.00     0.174 HD
ATOM    173  HE  ARG d   9    1522.416 453.909-1533.012  0.00  0.00     0.177 HD
ENDBRANCH 164 165
ENDBRANCH 163 164
ENDBRANCH 162 163
ENDBRANCH   1 162
TORSDOF 69
