@<TRIPOS>MOLECULE
4-20
274 275 16              
SMALL
USER_CHARGES
@<TRIPOS>ATOM
1	   N	688.592	174.908	-641.981	N.3	1	GLU1	-0.516	
2	  CA	689.151	176.257	-641.981	C.3	1	GLU1	0.040	
3	   C	690.660	176.217	-641.981	C.2	1	GLU1	0.537	
4	   O	691.335	176.916	-642.749	O.2	1	GLU1	-0.582	
5	  CB	688.628	177.042	-640.744	C.3	1	GLU1	0.056	
6	  CG	689.103	178.527	-640.633	C.3	1	GLU1	0.014	
7	  CD	688.679	179.331	-639.418	C.2	1	GLU1	0.805	
8	 OE1	687.951	178.829	-638.540	O.co2	1	GLU1	-0.819	
9	 OE2	689.109	180.501	-639.346	O.co2	1	GLU1	-0.819	
10	   H	689.219	174.029	-641.981	 H	1	GLU1	0.294	
11	  HA	688.825	176.775	-642.901	 H	1	GLU1	0.111	
12	 2HB	688.917	176.511	-639.814	 H	1	GLU1	-0.017	
13	 3HB	687.521	177.032	-640.731	 H	1	GLU1	-0.017	
14	 2HG	688.793	179.112	-641.514	 H	1	GLU1	-0.043	
15	 3HG	690.203	178.594	-640.604	 H	1	GLU1	-0.043	
16	   N	691.264	175.431	-641.155	N.am	2	ASN2	-0.416	
17	  CA	692.724	175.393	-641.155	C.3	2	ASN2	0.014	
18	   C	693.255	175.037	-642.524	C.2	2	ASN2	0.597	
19	   O	694.170	175.668	-643.053	O.2	2	ASN2	-0.568	
20	  CB	693.216	174.370	-640.091	C.3	2	ASN2	-0.204	
21	  CG	692.753	174.594	-638.648	C.2	2	ASN2	0.713	
22	 ND2	693.347	175.509	-637.930	N.pl3	2	ASN2	-0.919	
23	 OD1	691.832	173.960	-638.154	O.2	2	ASN2	-0.593	
24	   H	690.736	174.852	-640.519	 H	2	ASN2	0.272	
25	  HA	693.101	176.403	-640.910	 H	2	ASN2	0.105	
26	 2HB	694.320	174.311	-640.095	 H	2	ASN2	0.080	
27	 3HB	692.887	173.351	-640.377	 H	2	ASN2	0.080	
28	1HD2	692.866	175.681	-637.043	 H	2	ASN2	0.420	
29	2HD2	694.049	176.080	-638.399	 H	2	ASN2	0.420	
30	   N	692.733	174.042	-643.158	N.am	3	PRO3	-0.255	
31	  CA	693.185	173.633	-644.480	C.3	3	PRO3	-0.027	
32	   C	692.787	174.656	-645.557	C.2	3	PRO3	0.590	
33	   O	693.610	175.040	-646.388	O.2	3	PRO3	-0.575	
34	  CB	692.481	172.278	-644.649	C.3	3	PRO3	-0.007	
35	  CG	691.198	172.430	-643.819	C.3	3	PRO3	0.019	
36	  CD	691.655	173.249	-642.609	C.3	3	PRO3	0.019	
37	  HA	694.271	173.513	-644.493	 H	3	PRO3	0.064	
38	 2HB	693.104	171.497	-644.208	 H	3	PRO3	0.025	
39	 3HB	692.283	172.030	-645.694	 H	3	PRO3	0.025	
40	 2HG	690.771	171.468	-643.528	 H	3	PRO3	0.021	
41	 3HG	690.460	173.001	-644.386	 H	3	PRO3	0.021	
42	 2HD	692.045	172.599	-641.822	 H	3	PRO3	0.039	
43	 3HD	690.859	173.885	-642.216	 H	3	PRO3	0.039	
44	   N	691.582	175.116	-645.589	N.am	4	ARG4	-0.348	
45	  CA	691.223	176.087	-646.619	C.3	4	ARG4	-0.264	
46	   C	692.123	177.298	-646.557	C.2	4	ARG4	0.734	
47	   O	692.646	177.774	-647.562	O.2	4	ARG4	-0.589	
48	  CB	689.730	176.481	-646.437	C.3	4	ARG4	-0.001	
49	  CG	689.104	177.292	-647.607	C.3	4	ARG4	0.039	
50	  CD	687.640	177.669	-647.331	C.3	4	ARG4	0.049	
51	  NE	687.088	178.426	-648.493	N.pl3	4	ARG4	-0.530	
52	  CZ	685.852	178.908	-648.580	C.cat	4	ARG4	0.808	
53	 NH1	684.960	178.779	-647.639	N.pl3	4	ARG4	-0.863	
54	 NH2	685.513	179.540	-649.659	N.pl3	4	ARG4	-0.863	
55	   H	690.898	174.809	-644.912	 H	4	ARG4	0.275	
56	  HA	691.372	175.610	-647.606	 H	4	ARG4	0.156	
57	 2HB	689.622	177.041	-645.485	 H	4	ARG4	0.033	
58	 3HB	689.128	175.562	-646.283	 H	4	ARG4	0.033	
59	 2HG	689.184	176.701	-648.543	 H	4	ARG4	0.029	
60	 3HG	689.693	178.215	-647.786	 H	4	ARG4	0.029	
61	 2HD	687.586	178.276	-646.400	 H	4	ARG4	0.069	
62	 3HD	687.049	176.747	-647.140	 H	4	ARG4	0.069	
63	  HE	687.664	178.616	-649.320	 H	4	ARG4	0.346	
64	1HH1	685.291	178.272	-646.815	 H	4	ARG4	0.448	
65	2HH1	684.030	179.178	-647.783	 H	4	ARG4	0.448	
66	1HH2	686.226	179.632	-650.385	 H	4	ARG4	0.448	
67	2HH2	684.559	179.901	-649.708	 H	4	ARG4	0.448	
68	   N	692.350	177.851	-645.413	N.am	5	SER5	-0.416	
69	  CA	693.220	179.022	-645.354	C.3	5	SER5	-0.025	
70	   C	694.579	178.716	-645.939	C.2	5	SER5	0.597	
71	   O	695.127	179.469	-646.743	O.2	5	SER5	-0.568	
72	  CB	693.331	179.553	-643.903	C.3	5	SER5	0.212	
73	  OG	694.062	178.674	-643.042	O.3	5	SER5	-0.655	
74	   H	691.932	177.479	-644.572	 H	5	SER5	0.272	
75	  HA	692.772	179.812	-645.983	 H	5	SER5	0.084	
76	 2HB	692.331	179.748	-643.471	 H	5	SER5	0.035	
77	 3HB	693.837	180.539	-643.905	 H	5	SER5	0.035	
78	  HG	693.573	177.849	-642.992	 H	5	SER5	0.428	
79	   N	695.183	177.632	-645.584	N.am	6	ILE6	-0.416	
80	  CA	696.497	177.337	-646.150	C.3	6	ILE6	-0.060	
81	   C	696.440	177.299	-647.658	C.2	6	ILE6	0.597	
82	   O	697.276	177.887	-648.361	O.2	6	ILE6	-0.568	
83	  CB	697.095	176.000	-645.550	C.3	6	ILE6	0.130	
84	 CG1	697.114	175.938	-643.989	C.3	6	ILE6	-0.043	
85	 CG2	698.537	175.698	-646.064	C.3	6	ILE6	-0.320	
86	 CD1	697.383	174.548	-643.374	C.3	6	ILE6	-0.066	
87	   H	694.754	176.998	-644.926	 H	6	ILE6	0.272	
88	  HA	697.171	178.171	-645.882	 H	6	ILE6	0.087	
89	  HB	696.437	175.175	-645.894	 H	6	ILE6	0.019	
90	2HG1	696.131	176.258	-643.594	 H	6	ILE6	0.024	
91	3HG1	697.830	176.679	-643.583	 H	6	ILE6	0.024	
92	1HG2	698.596	175.604	-647.163	 H	6	ILE6	0.088	
93	2HG2	699.259	176.480	-645.761	 H	6	ILE6	0.088	
94	3HG2	698.926	174.735	-645.685	 H	6	ILE6	0.088	
95	1HD1	696.654	173.794	-643.729	 H	6	ILE6	0.019	
96	2HD1	698.393	174.169	-643.609	 H	6	ILE6	0.019	
97	3HD1	697.306	174.578	-642.271	 H	6	ILE6	0.019	
98	   N	695.495	176.636	-648.232	N.am	7	LEU7	-0.416	
99	  CA	695.441	176.601	-649.691	C.3	7	LEU7	-0.052	
100	   C	695.369	177.996	-650.263	C.2	7	LEU7	0.597	
101	   O	696.091	178.359	-651.204	O.2	7	LEU7	-0.568	
102	  CB	694.237	175.741	-650.172	C.3	7	LEU7	-0.110	
103	  CG	694.164	174.262	-649.706	C.3	7	LEU7	0.353	
104	 CD1	692.974	173.557	-650.373	C.3	7	LEU7	-0.412	
105	 CD2	695.457	173.482	-649.997	C.3	7	LEU7	-0.412	
106	   H	694.802	176.150	-647.681	 H	7	LEU7	0.272	
107	  HA	696.382	176.160	-650.065	 H	7	LEU7	0.092	
108	 2HB	694.215	175.758	-651.280	 H	7	LEU7	0.046	
109	 3HB	693.298	176.244	-649.868	 H	7	LEU7	0.046	
110	  HG	693.993	174.254	-648.609	 H	7	LEU7	-0.036	
111	1HD1	692.017	174.066	-650.150	 H	7	LEU7	0.100	
112	2HD1	693.074	173.516	-651.474	 H	7	LEU7	0.100	
113	3HD1	692.866	172.515	-650.017	 H	7	LEU7	0.100	
114	1HD2	695.733	173.512	-651.067	 H	7	LEU7	0.100	
115	2HD2	696.310	173.893	-649.425	 H	7	LEU7	0.100	
116	3HD2	695.375	172.420	-649.701	 H	7	LEU7	0.100	
117	   N	694.532	178.837	-649.757	N.am	8	ASP8	-0.516	
118	  CA	694.462	180.187	-650.310	C.3	8	ASP8	0.038	
119	   C	695.809	180.866	-650.252	C.2	8	ASP8	0.537	
120	   O	696.283	181.471	-651.226	O.2	8	ASP8	-0.582	
121	  CB	693.384	181.026	-649.568	C.3	8	ASP8	-0.030	
122	  CG	693.166	182.447	-650.108	C.2	8	ASP8	0.799	
123	 OD1	693.231	182.646	-651.339	O.co2	8	ASP8	-0.801	
124	 OD2	692.974	183.373	-649.293	O.co2	8	ASP8	-0.801	
125	   H	693.934	178.566	-648.990	 H	8	ASP8	0.294	
126	  HA	694.180	180.109	-651.377	 H	8	ASP8	0.088	
127	 2HB	693.641	181.109	-648.496	 H	8	ASP8	-0.012	
128	 3HB	692.405	180.521	-649.602	 H	8	ASP8	-0.012	
129	   N	696.488	180.816	-649.156	N.am	9	GLU9	-0.516	
130	  CA	697.791	181.473	-649.100	C.3	9	GLU9	0.040	
131	   C	698.710	180.945	-650.175	C.2	9	GLU9	0.537	
132	   O	699.375	181.699	-650.900	O.2	9	GLU9	-0.582	
133	  CB	698.424	181.264	-647.694	C.3	9	GLU9	0.056	
134	  CG	699.807	181.956	-647.464	C.3	9	GLU9	0.014	
135	  CD	700.508	181.742	-646.135	C.2	9	GLU9	0.805	
136	 OE1	699.985	181.050	-645.239	O.co2	9	GLU9	-0.819	
137	 OE2	701.627	182.279	-646.002	O.co2	9	GLU9	-0.819	
138	   H	696.124	180.329	-648.349	 H	9	GLU9	0.294	
139	  HA	697.650	182.554	-649.275	 H	9	GLU9	0.111	
140	 2HB	698.536	180.179	-647.491	 H	9	GLU9	-0.017	
141	 3HB	697.727	181.617	-646.910	 H	9	GLU9	-0.017	
142	 2HG	699.735	183.046	-647.603	 H	9	GLU9	-0.043	
143	 3HG	700.554	181.611	-648.197	 H	9	GLU9	-0.043	
144	   N	698.806	179.670	-650.345	N.am	10	HIS10	-0.416	
145	  CA	699.694	179.159	-651.385	C.3	10	HIS10	-0.058	
146	   C	699.328	179.724	-652.736	C.2	10	HIS10	0.597	
147	   O	700.182	180.189	-653.507	O.2	10	HIS10	-0.568	
148	  CB	699.530	177.630	-651.381	C.3	10	HIS10	-0.007	
149	  CG	700.815	176.919	-651.072	C.2	10	HIS10	0.187	
150	 CD2	701.195	176.583	-649.780	C.2	10	HIS10	-0.221	
151	 ND1	701.767	176.513	-652.005	N.2	10	HIS10	-0.543	
152	 CE1	702.673	175.954	-651.181	C.2	10	HIS10	0.163	
153	 NE2	702.410	175.951	-649.846	N.pl3	10	HIS10	-0.280	
154	   H	698.274	179.034	-649.767	 H	10	HIS10	0.272	
155	  HA	700.713	179.516	-651.159	 H	10	HIS10	0.136	
156	 2HB	699.165	177.263	-652.361	 H	10	HIS10	0.037	
157	 3HB	698.773	177.293	-650.642	 H	10	HIS10	0.037	
158	 2HD	700.609	176.798	-648.891	 H	10	HIS10	0.186	
159	 1HE	703.564	175.533	-651.628	 H	10	HIS10	0.144	
160	 2HE	702.976	175.573	-649.073	 H	10	HIS10	0.334	
161	   N	698.091	179.724	-653.100	N.am	11	VAL11	-0.416	
162	  CA	697.737	180.270	-654.407	C.3	11	VAL11	-0.087	
163	   C	698.202	181.701	-654.538	C.2	11	VAL11	0.597	
164	   O	698.803	182.106	-655.541	O.2	11	VAL11	-0.568	
165	  CB	696.176	180.164	-654.627	C.3	11	VAL11	0.299	
166	 CG1	695.608	180.869	-655.890	C.3	11	VAL11	-0.319	
167	 CG2	695.651	178.710	-654.701	C.3	11	VAL11	-0.319	
168	   H	697.377	179.351	-652.490	 H	11	VAL11	0.272	
169	  HA	698.257	179.688	-655.189	 H	11	VAL11	0.097	
170	  HB	695.688	180.644	-653.752	 H	11	VAL11	-0.030	
171	1HG1	696.047	180.478	-656.827	 H	11	VAL11	0.079	
172	2HG1	694.509	180.762	-655.973	 H	11	VAL11	0.079	
173	3HG1	695.786	181.962	-655.880	 H	11	VAL11	0.079	
174	1HG2	695.940	178.123	-653.811	 H	11	VAL11	0.079	
175	2HG2	694.545	178.674	-654.745	 H	11	VAL11	0.079	
176	3HG2	696.033	178.170	-655.588	 H	11	VAL11	0.079	
177	   N	697.964	182.526	-653.575	N.am	12	GLN12	-0.416	
178	  CA	698.413	183.909	-653.702	C.3	12	GLN12	-0.003	
179	   C	699.904	183.976	-653.938	C.2	12	GLN12	0.597	
180	   O	700.391	184.685	-654.816	O.2	12	GLN12	-0.568	
181	  CB	698.022	184.676	-652.419	C.3	12	GLN12	-0.004	
182	  CG	698.383	186.198	-652.386	C.3	12	GLN12	-0.064	
183	  CD	698.080	187.010	-651.121	C.2	12	GLN12	0.695	
184	 NE2	697.512	186.434	-650.093	N.pl3	12	GLN12	-0.941	
185	 OE1	698.382	188.191	-651.043	O.2	12	GLN12	-0.609	
186	   H	697.475	182.220	-652.747	 H	12	GLN12	0.272	
187	  HA	697.915	184.366	-654.577	 H	12	GLN12	0.085	
188	 2HB	698.497	184.175	-651.549	 H	12	GLN12	0.017	
189	 3HB	696.932	184.569	-652.256	 H	12	GLN12	0.017	
190	 2HG	697.906	186.719	-653.237	 H	12	GLN12	0.035	
191	 3HG	699.466	186.339	-652.551	 H	12	GLN12	0.035	
192	1HE2	697.404	187.028	-649.269	 H	12	GLN12	0.425	
193	2HE2	697.348	185.430	-650.197	 H	12	GLN12	0.425	
194	   N	700.687	183.269	-653.198	N.am	13	ARG13	-0.348	
195	  CA	702.128	183.334	-653.427	C.3	13	ARG13	-0.264	
196	   C	702.465	182.963	-654.852	C.2	13	ARG13	0.734	
197	   O	703.234	183.635	-655.536	O.2	13	ARG13	-0.589	
198	  CB	702.840	182.394	-652.414	C.3	13	ARG13	-0.001	
199	  CG	704.385	182.546	-652.331	C.3	13	ARG13	0.039	
200	  CD	705.011	181.558	-651.334	C.3	13	ARG13	0.049	
201	  NE	706.488	181.764	-651.282	N.pl3	13	ARG13	-0.530	
202	  CZ	707.336	181.072	-650.527	C.cat	13	ARG13	0.808	
203	 NH1	706.970	180.107	-649.731	N.pl3	13	ARG13	-0.863	
204	 NH2	708.595	181.370	-650.583	N.pl3	13	ARG13	-0.863	
205	   H	700.310	182.678	-652.470	 H	13	ARG13	0.275	
206	  HA	702.453	184.380	-653.268	 H	13	ARG13	0.156	
207	 2HB	702.573	181.344	-652.654	 H	13	ARG13	0.033	
208	 3HB	702.414	182.560	-651.403	 H	13	ARG13	0.033	
209	 2HG	704.633	183.591	-652.051	 H	13	ARG13	0.029	
210	 3HG	704.836	182.391	-653.333	 H	13	ARG13	0.029	
211	 2HD	704.766	180.518	-651.644	 H	13	ARG13	0.069	
212	 3HD	704.554	181.703	-650.331	 H	13	ARG13	0.069	
213	  HE	706.940	182.487	-651.852	 H	13	ARG13	0.346	
214	1HH1	705.964	179.921	-649.734	 H	13	ARG13	0.448	
215	2HH1	707.682	179.624	-649.182	 H	13	ARG13	0.448	
216	1HH2	708.863	182.129	-651.213	 H	13	ARG13	0.448	
217	2HH2	709.230	180.828	-649.994	 H	13	ARG13	0.448	
218	   N	701.928	181.909	-655.368	N.am	14	VAL14	-0.416	
219	  CA	702.254	181.550	-656.745	C.3	14	VAL14	-0.087	
220	   C	701.925	182.681	-657.690	C.2	14	VAL14	0.597	
221	   O	702.719	183.063	-658.559	O.2	14	VAL14	-0.568	
222	  CB	701.481	180.234	-657.153	C.3	14	VAL14	0.299	
223	 CG1	701.571	179.816	-658.647	C.3	14	VAL14	-0.319	
224	 CG2	701.912	178.981	-656.353	C.3	14	VAL14	-0.319	
225	   H	701.293	181.340	-654.826	 H	14	VAL14	0.272	
226	  HA	703.342	181.373	-656.819	 H	14	VAL14	0.097	
227	  HB	700.405	180.405	-656.938	 H	14	VAL14	-0.030	
228	1HG1	702.612	179.639	-658.975	 H	14	VAL14	0.079	
229	2HG1	700.998	178.894	-658.860	 H	14	VAL14	0.079	
230	3HG1	701.143	180.579	-659.325	 H	14	VAL14	0.079	
231	1HG2	701.824	179.139	-655.263	 H	14	VAL14	0.079	
232	2HG2	701.276	178.105	-656.586	 H	14	VAL14	0.079	
233	3HG2	702.960	178.691	-656.558	 H	14	VAL14	0.079	
234	   N	700.780	183.267	-657.589	N.am	15	MET15	-0.416	
235	  CA	700.461	184.361	-658.502	C.3	15	MET15	-0.024	
236	   C	701.492	185.460	-658.413	C.2	15	MET15	0.597	
237	   O	701.995	185.971	-659.425	O.2	15	MET15	-0.568	
238	  CB	699.039	184.907	-658.194	C.3	15	MET15	0.034	
239	  CG	697.877	183.909	-658.387	C.3	15	MET15	0.002	
240	  SD	696.304	184.776	-658.273	S.3	15	MET15	-0.274	
241	  CE	695.222	183.347	-658.138	C.3	15	MET15	-0.054	
242	   H	700.115	182.974	-656.888	 H	15	MET15	0.272	
243	  HA	700.487	183.974	-659.538	 H	15	MET15	0.088	
244	 2HB	698.838	185.786	-658.835	 H	15	MET15	0.024	
245	 3HB	699.004	185.299	-657.157	 H	15	MET15	0.024	
246	 2HG	697.919	183.123	-657.609	 H	15	MET15	0.044	
247	 3HG	697.940	183.395	-659.363	 H	15	MET15	0.044	
248	 1HE	695.366	182.659	-658.990	 H	15	MET15	0.068	
249	 2HE	695.430	182.793	-657.205	 H	15	MET15	0.068	
250	 3HE	694.164	183.662	-658.121	 H	15	MET15	0.068	
251	   N	701.860	185.880	-657.250	N.am	16	ARG16	-0.348	
252	  CA	702.857	186.944	-657.165	C.3	16	ARG16	-0.264	
253	   C	704.128	186.551	-657.881	C.2	16	ARG16	0.734	
254	   O	704.241	185.475	-658.463	O.2	16	ARG16	-0.589	
255	  CB	703.125	187.261	-655.667	C.3	16	ARG16	-0.001	
256	  CG	703.951	188.549	-655.393	C.3	16	ARG16	0.039	
257	  CD	704.199	188.767	-653.891	C.3	16	ARG16	0.049	
258	  NE	704.976	190.026	-653.689	N.pl3	16	ARG16	-0.530	
259	  CZ	705.367	190.507	-652.513	C.cat	16	ARG16	0.808	
260	 NH1	705.118	189.923	-651.375	N.pl3	16	ARG16	-0.863	
261	 NH2	706.031	191.620	-652.493	N.pl3	16	ARG16	-0.863	
262	   H	701.464	185.480	-656.412	 H	16	ARG16	0.275	
263	  HA	702.448	187.837	-657.675	 H	16	ARG16	0.156	
264	 2HB	703.621	186.384	-655.201	 H	16	ARG16	0.033	
265	 3HB	702.156	187.342	-655.133	 H	16	ARG16	0.033	
266	 2HG	703.421	189.421	-655.830	 H	16	ARG16	0.029	
267	 3HG	704.924	188.496	-655.921	 H	16	ARG16	0.029	
268	 2HD	704.748	187.892	-653.478	 H	16	ARG16	0.069	
269	 3HD	703.227	188.810	-653.356	 H	16	ARG16	0.069	
270	  HE	705.255	190.607	-654.486	 H	16	ARG16	0.346	
271	1HH1	704.592	189.050	-651.460	 H	16	ARG16	0.448	
272	2HH1	705.453	190.357	-650.513	 H	16	ARG16	0.448	
273	1HH2	706.218	192.063	-653.395	 H	16	ARG16	0.448	
274	2HH2	706.321	191.974	-651.581	 H	16	ARG16	0.448	
@<TRIPOS>BOND
1 1 2 1
2 1 10 1
3 2 3 1
4 2 5 1
5 2 11 1
6 3 4 2
7 3 16 1
8 5 6 1
9 6 7 1
10 7 8 2
11 7 9 1
12 5 12 1
13 5 13 1
14 6 14 1
15 6 15 1
16 16 17 1
17 16 24 1
18 17 18 1
19 17 20 1
20 17 25 1
21 18 19 2
22 18 30 1
23 20 21 1
24 21 22 1
25 21 23 2
26 20 26 1
27 20 27 1
28 22 28 1
29 22 29 1
30 30 31 1
31 30 36 1
32 31 32 1
33 31 34 1
34 31 37 1
35 32 33 2
36 32 44 1
37 34 35 1
38 35 36 1
39 34 38 1
40 34 39 1
41 35 40 1
42 35 41 1
43 36 42 1
44 36 43 1
45 44 45 1
46 44 55 1
47 45 46 1
48 45 48 1
49 45 56 1
50 46 47 2
51 46 68 1
52 48 49 1
53 49 50 1
54 50 51 1
55 51 52 1
56 52 53 2
57 52 54 1
58 48 57 1
59 48 58 1
60 49 59 1
61 49 60 1
62 50 61 1
63 50 62 1
64 51 63 1
65 53 64 1
66 53 65 1
67 54 66 1
68 54 67 1
69 68 69 1
70 68 74 1
71 69 70 1
72 69 72 1
73 69 75 1
74 70 71 2
75 70 79 1
76 72 73 1
77 72 76 1
78 72 77 1
79 73 78 1
80 79 80 1
81 79 87 1
82 80 81 1
83 80 83 1
84 80 88 1
85 81 82 2
86 81 98 1
87 83 84 1
88 83 85 1
89 84 86 1
90 83 89 1
91 84 90 1
92 84 91 1
93 85 92 1
94 85 93 1
95 85 94 1
96 86 95 1
97 86 96 1
98 86 97 1
99 98 99 1
100 98 106 1
101 99 100 1
102 99 102 1
103 99 107 1
104 100 101 2
105 100 117 1
106 102 103 1
107 103 104 1
108 103 105 1
109 102 108 1
110 102 109 1
111 103 110 1
112 104 111 1
113 104 112 1
114 104 113 1
115 105 114 1
116 105 115 1
117 105 116 1
118 117 118 1
119 117 125 1
120 118 119 1
121 118 121 1
122 118 126 1
123 119 120 2
124 119 129 1
125 121 122 1
126 122 123 2
127 122 124 1
128 121 127 1
129 121 128 1
130 129 130 1
131 129 138 1
132 130 131 1
133 130 133 1
134 130 139 1
135 131 132 2
136 131 144 1
137 133 134 1
138 134 135 1
139 135 136 2
140 135 137 1
141 133 140 1
142 133 141 1
143 134 142 1
144 134 143 1
145 144 145 1
146 144 154 1
147 145 146 1
148 145 148 1
149 145 155 1
150 146 147 2
151 146 161 1
152 148 149 1
153 149 150 2
154 150 153 1
155 149 151 1
156 151 152 2
157 152 153 1
158 148 156 1
159 148 157 1
160 150 158 1
161 152 159 1
162 153 160 1
163 161 162 1
164 161 168 1
165 162 163 1
166 162 165 1
167 162 169 1
168 163 164 2
169 163 177 1
170 165 166 1
171 165 167 1
172 165 170 1
173 166 171 1
174 166 172 1
175 166 173 1
176 167 174 1
177 167 175 1
178 167 176 1
179 177 178 1
180 177 186 1
181 178 179 1
182 178 181 1
183 178 187 1
184 179 180 2
185 179 194 1
186 181 182 1
187 182 183 1
188 183 184 1
189 183 185 2
190 181 188 1
191 181 189 1
192 182 190 1
193 182 191 1
194 184 192 1
195 184 193 1
196 194 195 1
197 194 205 1
198 195 196 1
199 195 198 1
200 195 206 1
201 196 197 2
202 196 218 1
203 198 199 1
204 199 200 1
205 200 201 1
206 201 202 1
207 202 203 2
208 202 204 1
209 198 207 1
210 198 208 1
211 199 209 1
212 199 210 1
213 200 211 1
214 200 212 1
215 201 213 1
216 203 214 1
217 203 215 1
218 204 216 1
219 204 217 1
220 218 219 1
221 218 225 1
222 219 220 1
223 219 222 1
224 219 226 1
225 220 221 2
226 220 234 1
227 222 223 1
228 222 224 1
229 222 227 1
230 223 228 1
231 223 229 1
232 223 230 1
233 224 231 1
234 224 232 1
235 224 233 1
236 234 235 1
237 234 242 1
238 235 236 1
239 235 238 1
240 235 243 1
241 236 237 2
242 236 251 1
243 238 239 1
244 239 240 1
245 240 241 1
246 238 244 1
247 238 245 1
248 239 246 1
249 239 247 1
250 241 248 1
251 241 249 1
252 241 250 1
253 251 252 1
254 251 262 1
255 252 253 1
256 252 255 1
257 252 263 1
258 253 254 2
259 255 256 1
260 256 257 1
261 257 258 1
262 258 259 1
263 259 260 2
264 259 261 1
265 255 264 1
266 255 265 1
267 256 266 1
268 256 267 1
269 257 268 1
270 257 269 1
271 258 270 1
272 260 271 1
273 260 272 1
274 261 273 1
275 261 274 1
@<TRIPOS>SUBSTRUCTURE
1	GLU1	1	RESIDUE	1 ****	GLU
2	ASN2	16	RESIDUE	1 ****	ASN
3	PRO3	30	RESIDUE	1 ****	PRO
4	ARG4	44	RESIDUE	1 ****	ARG
5	SER5	68	RESIDUE	1 ****	SER
6	ILE6	79	RESIDUE	1 ****	ILE
7	LEU7	98	RESIDUE	1 ****	LEU
8	ASP8	117	RESIDUE	1 ****	ASP
9	GLU9	129	RESIDUE	1 ****	GLU
10	HIS10	144	RESIDUE	1 ****	HIS
11	VAL11	161	RESIDUE	1 ****	VAL
12	GLN12	177	RESIDUE	1 ****	GLN
13	ARG13	194	RESIDUE	1 ****	ARG
14	VAL14	218	RESIDUE	1 ****	VAL
15	MET15	234	RESIDUE	1 ****	MET
16	ARG16	251	RESIDUE	1 ****	ARG
