REMARK WARNING: 32 MAX_TORS EXCEEDED!!!
REMARK  69 active torsions:
REMARK  status: ('A' for Active; 'I' for Inactive)
REMARK    1  A    between atoms: N_1  and  CA_2 
REMARK    2  A    between atoms: CA_2  and  C_3 
REMARK    3  A    between atoms: CA_2  and  CB_5 
REMARK       I    between atoms: C_3  and  N_11 
REMARK    4  A    between atoms: CB_5  and  CG_6 
REMARK    5  A    between atoms: CG_6  and  CD_7 
REMARK    6  A    between atoms: N_11  and  CA_12 
REMARK    7  A    between atoms: CA_12  and  C_13 
REMARK    8  A    between atoms: CA_12  and  CB_15 
REMARK       I    between atoms: C_13  and  N_22 
REMARK    9  A    between atoms: CB_15  and  CG_16 
REMARK       I    between atoms: CG_16  and  ND2_17 
REMARK   10  A    between atoms: CA_23  and  C_24 
REMARK       I    between atoms: C_24  and  N_29 
REMARK   11  A    between atoms: N_29  and  CA_30 
REMARK   12  A    between atoms: CA_30  and  C_31 
REMARK   13  A    between atoms: CA_30  and  CB_33 
REMARK       I    between atoms: C_31  and  N_39 
REMARK   14  A    between atoms: CB_33  and  CG_34 
REMARK   15  A    between atoms: CG_34  and  CD_35 
REMARK   16  A    between atoms: N_39  and  CA_40 
REMARK   17  A    between atoms: CA_40  and  C_41 
REMARK   18  A    between atoms: CA_40  and  CB_43 
REMARK       I    between atoms: C_41  and  N_47 
REMARK   19  A    between atoms: CB_43  and  OG_44 
REMARK   20  A    between atoms: N_47  and  CA_48 
REMARK   21  A    between atoms: CA_48  and  C_49 
REMARK   22  A    between atoms: CA_48  and  CB_51 
REMARK       I    between atoms: C_49  and  N_56 
REMARK   23  A    between atoms: CB_51  and  CG1_52 
REMARK   24  A    between atoms: N_56  and  CA_57 
REMARK   25  A    between atoms: CA_57  and  C_58 
REMARK   26  A    between atoms: CA_57  and  CB_60 
REMARK       I    between atoms: C_58  and  N_65 
REMARK   27  A    between atoms: CB_60  and  CG_61 
REMARK   28  A    between atoms: N_65  and  CA_66 
REMARK   29  A    between atoms: CA_66  and  C_67 
REMARK   30  A    between atoms: CA_66  and  CB_69 
REMARK       I    between atoms: C_67  and  N_74 
REMARK   31  A    between atoms: CB_69  and  CG_70 
REMARK   32  A    between atoms: N_74  and  CA_75 
REMARK   33  A    between atoms: CA_75  and  C_76 
REMARK   34  A    between atoms: CA_75  and  CB_78 
REMARK       I    between atoms: C_76  and  N_84 
REMARK   35  A    between atoms: CB_78  and  CG_79 
REMARK   36  A    between atoms: CG_79  and  CD_80 
REMARK   37  A    between atoms: N_84  and  CA_85 
REMARK   38  A    between atoms: CA_85  and  C_86 
REMARK   39  A    between atoms: CA_85  and  CB_88 
REMARK       I    between atoms: C_86  and  N_96 
REMARK   40  A    between atoms: CB_88  and  CG_89 
REMARK   41  A    between atoms: N_96  and  CA_97 
REMARK   42  A    between atoms: CA_97  and  C_98 
REMARK   43  A    between atoms: CA_97  and  CB_100 
REMARK       I    between atoms: C_98  and  N_104 
REMARK   44  A    between atoms: N_104  and  CA_105 
REMARK   45  A    between atoms: CA_105  and  C_106 
REMARK   46  A    between atoms: CA_105  and  CB_108 
REMARK       I    between atoms: C_106  and  N_121 
REMARK   47  A    between atoms: CB_108  and  CG_109 
REMARK   48  A    between atoms: CG_109  and  CD_110 
REMARK   49  A    between atoms: CD_110  and  NE_111 
REMARK       I    between atoms: NE_111  and  CZ_112 
REMARK       I    between atoms: CZ_112  and  NH1_113 
REMARK       I    between atoms: CZ_112  and  NH2_114 
REMARK   50  A    between atoms: N_121  and  CA_122 
REMARK   51  A    between atoms: CA_122  and  C_123 
REMARK   52  A    between atoms: CA_122  and  CB_125 
REMARK       I    between atoms: C_123  and  N_138 
REMARK   53  A    between atoms: CB_125  and  CG_126 
REMARK   54  A    between atoms: CG_126  and  CD_127 
REMARK   55  A    between atoms: CD_127  and  NE_128 
REMARK       I    between atoms: NE_128  and  CZ_129 
REMARK       I    between atoms: CZ_129  and  NH1_130 
REMARK       I    between atoms: CZ_129  and  NH2_131 
REMARK   56  A    between atoms: N_138  and  CA_139 
REMARK   57  A    between atoms: CA_139  and  C_140 
REMARK   58  A    between atoms: CA_139  and  CB_142 
REMARK       I    between atoms: C_140  and  N_146 
REMARK   59  A    between atoms: N_146  and  CA_147 
REMARK   60  A    between atoms: CA_147  and  C_148 
REMARK   61  A    between atoms: CA_147  and  CB_150 
REMARK       I    between atoms: C_148  and  N_155 
REMARK   62  A    between atoms: CB_150  and  CG_151 
REMARK   63  A    between atoms: CG_151  and  SD_152 
REMARK   64  A    between atoms: N_155  and  CA_156 
REMARK   65  A    between atoms: CA_156  and  C_157 
REMARK   66  A    between atoms: CA_156  and  CB_159 
REMARK   67  A    between atoms: CB_159  and  CG_160 
REMARK   68  A    between atoms: CG_160  and  CD_161 
REMARK   69  A    between atoms: CD_161  and  NE_162 
REMARK       I    between atoms: NE_162  and  CZ_163 
REMARK       I    between atoms: CZ_163  and  NH1_164 
ROOT
ATOM      1  CA  HIS d  10    2012.724 609.229-2072.185  0.00  0.00     0.182 C 
ENDROOT
BRANCH   1   2
ATOM      2  N   HIS d  10    2011.836 609.739-2071.145  0.00  0.00    -0.346 N 
ATOM      3  C   GLU d   9    2011.740 611.014-2070.974  0.00  0.00     0.241 C 
ATOM      4  O   GLU d   9    2012.404 611.769-2071.699  0.00  0.00    -0.271 OA
ATOM      5  H   HIS d  10    2011.305 609.104-2070.567  0.00  0.00     0.163 HD
BRANCH   3   6
ATOM      6  CA  GLU d   9    2010.821 611.542-2069.898  0.00  0.00     0.177 C 
BRANCH   6   7
ATOM      7  N   GLU d   9    2009.518 610.885-2069.955  0.00  0.00    -0.346 N 
ATOM      8  C   ASP d   8    2008.839 610.935-2071.050  0.00  0.00     0.241 C 
ATOM      9  O   ASP d   8    2009.313 611.541-2072.024  0.00  0.00    -0.271 OA
ATOM     10  H   GLU d   9    2009.155 610.398-2069.148  0.00  0.00     0.163 HD
BRANCH   8  11
ATOM     11  CA  ASP d   8    2007.492 610.256-2071.108  0.00  0.00     0.186 C 
BRANCH  11  12
ATOM     12  N   ASP d   8    2007.562 608.906-2070.556  0.00  0.00    -0.346 N 
ATOM     13  C   LEU d   7    2008.400 608.065-2071.062  0.00  0.00     0.241 C 
ATOM     14  O   LEU d   7    2009.121 608.428-2072.003  0.00  0.00    -0.271 OA
ATOM     15  H   ASP d   8    2006.964 608.634-2069.788  0.00  0.00     0.163 HD
BRANCH  13  16
ATOM     16  CA  LEU d   7    2008.471 606.670-2070.490  0.00  0.00     0.177 C 
BRANCH  16  17
ATOM     17  N   LEU d   7    2008.526 606.705-2069.031  0.00  0.00    -0.346 N 
ATOM     18  C   ILE d   6    2009.472 607.368-2068.457  0.00  0.00     0.241 C 
ATOM     19  O   ILE d   6    2010.307 607.956-2069.161  0.00  0.00    -0.271 OA
ATOM     20  H   LEU d   7    2007.833 606.218-2068.481  0.00  0.00     0.163 HD
BRANCH  18  21
ATOM     21  CA  ILE d   6    2009.528 607.405-2066.949  0.00  0.00     0.180 C 
BRANCH  21  22
ATOM     22  N   ILE d   6    2008.215 607.701-2066.383  0.00  0.00    -0.346 N 
ATOM     23  C   SER d   5    2007.611 608.784-2066.737  0.00  0.00     0.243 C 
ATOM     24  O   SER d   5    2008.158 609.537-2067.542  0.00  0.00    -0.271 OA
ATOM     25  H   ILE d   6    2007.787 607.066-2065.725  0.00  0.00     0.163 HD
BRANCH  23  26
ATOM     26  CA  SER d   5    2006.252 609.090-2066.152  0.00  0.00     0.200 C 
BRANCH  26  27
ATOM     27  N   SER d   5    2005.383 607.919-2066.210  0.00  0.00    -0.344 N 
ATOM     28  C   GLU d   4    2005.155 607.366-2067.353  0.00  0.00     0.241 C 
ATOM     29  O   GLU d   4    2005.682 607.846-2068.368  0.00  0.00    -0.271 OA
ATOM     30  H   SER d   5    2004.965 607.547-2065.369  0.00  0.00     0.163 HD
BRANCH  28  31
ATOM     31  CA  GLU d   4    2004.256 606.155-2067.414  0.00  0.00     0.177 C 
BRANCH  31  32
ATOM     32  N   GLU d   4    2004.616 605.184-2066.385  0.00  0.00    -0.346 N 
ATOM     33  C   PRO d   3    2005.821 604.724-2066.352  0.00  0.00     0.241 C 
ATOM     34  O   PRO d   3    2006.644 605.107-2067.183  0.00  0.00    -0.271 OA
ATOM     35  H   GLU d   4    2003.932 604.878-2065.708  0.00  0.00     0.163 HD
BRANCH  33  36
ATOM     36  CA  PRO d   3    2006.219 603.701-2065.275  0.00  0.00     0.179 C 
ATOM     37  N   PRO d   3    2005.767 604.110-2063.953  0.00  0.00    -0.337 N 
ATOM     38  C   ASN d   2    2006.289 605.105-2063.319  0.00  0.00     0.243 C 
ATOM     39  CD  PRO d   3    2004.689 603.317-2063.404  0.00  0.00     0.127 C 
ATOM     40  O   ASN d   2    2007.204 605.736-2063.848  0.00  0.00    -0.271 OA
ATOM     41  CG  PRO d   3    2004.231 602.498-2064.614  0.00  0.00     0.022 C 
ATOM     42  CB  PRO d   3    2005.515 602.346-2065.444  0.00  0.00     0.037 C 
BRANCH  38  43
ATOM     43  CA  ASN d   2    2005.757 605.461-2061.951  0.00  0.00     0.185 C 
BRANCH  43  44
ATOM     44  N   ASN d   2    2004.298 605.500-2061.951  0.00  0.00    -0.346 N 
ATOM     45  C   GLU d   1    2003.693 606.285-2062.776  0.00  0.00     0.242 C 
ATOM     46  O   GLU d   1    2004.369 606.984-2063.544  0.00  0.00    -0.271 OA
ATOM     47  H   ASN d   2    2003.770 604.920-2061.314  0.00  0.00     0.163 HD
BRANCH  45  48
ATOM     48  CA  GLU d   1    2002.184 606.325-2062.776  0.00  0.00     0.191 C 
BRANCH  48  49
ATOM     49  N   GLU d   1    2001.625 604.976-2062.776  0.00  0.00    -0.326 NA
ATOM     50  H   GLU d   1    2002.252 604.097-2062.776  0.00  0.00     0.180 HD
ENDBRANCH  48  49
BRANCH  48  51
ATOM     51  CB  GLU d   1    2001.661 607.110-2061.539  0.00  0.00     0.047 C 
BRANCH  51  52
ATOM     52  CG  GLU d   1    2002.136 608.595-2061.428  0.00  0.00     0.116 C 
BRANCH  52  53
ATOM     53  CD  GLU d   1    2001.713 609.399-2060.213  0.00  0.00     0.172 C 
ATOM     54  OE1 GLU d   1    2000.984 608.897-2059.335  0.00  0.00    -0.648 OA
ATOM     55  OE2 GLU d   1    2002.142 610.569-2060.141  0.00  0.00    -0.648 OA
ENDBRANCH  52  53
ENDBRANCH  51  52
ENDBRANCH  48  51
ENDBRANCH  45  48
ENDBRANCH  43  44
BRANCH  43  56
ATOM     56  CB  ASN d   2    2006.249 604.438-2060.886  0.00  0.00     0.137 C 
BRANCH  56  57
ATOM     57  CG  ASN d   2    2005.786 604.662-2059.443  0.00  0.00     0.217 C 
ATOM     58  ND2 ASN d   2    2006.380 605.576-2058.725  0.00  0.00    -0.370 N 
ATOM     59 21HD ASN d   2    2005.900 605.750-2057.838  0.00  0.00     0.159 HD
ATOM     60 22HD ASN d   2    2007.082 606.148-2059.194  0.00  0.00     0.159 HD
ATOM     61  OD1 ASN d   2    2004.865 604.028-2058.949  0.00  0.00    -0.274 OA
ENDBRANCH  56  57
ENDBRANCH  43  56
ENDBRANCH  38  43
ENDBRANCH  33  36
ENDBRANCH  31  32
BRANCH  31  62
ATOM     62  CB  GLU d   4    2002.768 606.574-2067.244  0.00  0.00     0.045 C 
BRANCH  62  63
ATOM     63  CG  GLU d   4    2002.220 607.577-2068.310  0.00  0.00     0.116 C 
BRANCH  63  64
ATOM     64  CD  GLU d   4    2000.793 608.074-2068.167  0.00  0.00     0.172 C 
ATOM     65  OE1 GLU d   4    2000.067 607.675-2067.236  0.00  0.00    -0.648 OA
ATOM     66  OE2 GLU d   4    2000.403 608.902-2069.015  0.00  0.00    -0.648 OA
ENDBRANCH  63  64
ENDBRANCH  62  63
ENDBRANCH  31  62
ENDBRANCH  28  31
ENDBRANCH  26  27
BRANCH  26  67
ATOM     67  CB  SER d   5    2006.364 609.622-2064.701  0.00  0.00     0.199 C 
BRANCH  67  68
ATOM     68  OG  SER d   5    2007.095 608.742-2063.840  0.00  0.00    -0.398 OA
ATOM     69  HG  SER d   5    2006.606 607.918-2063.790  0.00  0.00     0.209 HD
ENDBRANCH  67  68
ENDBRANCH  26  67
ENDBRANCH  23  26
ENDBRANCH  21  22
BRANCH  21  70
ATOM     70  CB  ILE d   6    2010.128 606.069-2066.350  0.00  0.00     0.013 C 
ATOM     71  CG2 ILE d   6    2011.569 605.767-2066.865  0.00  0.00     0.012 C 
BRANCH  70  72
ATOM     72  CG1 ILE d   6    2010.147 606.006-2064.789  0.00  0.00     0.002 C 
ATOM     73  CD1 ILE d   6    2010.416 604.617-2064.174  0.00  0.00     0.005 C 
ENDBRANCH  70  72
ENDBRANCH  21  70
ENDBRANCH  18  21
ENDBRANCH  16  17
BRANCH  16  74
ATOM     74  CB  LEU d   7    2007.268 605.810-2070.971  0.00  0.00     0.038 C 
BRANCH  74  75
ATOM     75  CG  LEU d   7    2007.194 604.331-2070.505  0.00  0.00    -0.020 C 
ATOM     76  CD1 LEU d   7    2006.004 603.625-2071.171  0.00  0.00     0.009 C 
ATOM     77  CD2 LEU d   7    2008.488 603.551-2070.797  0.00  0.00     0.009 C 
ENDBRANCH  74  75
ENDBRANCH  16  74
ENDBRANCH  13  16
ENDBRANCH  11  12
BRANCH  11  78
ATOM     78  CB  ASP d   8    2006.414 611.095-2070.366  0.00  0.00     0.147 C 
BRANCH  78  79
ATOM     79  CG  ASP d   8    2006.196 612.516-2070.906  0.00  0.00     0.175 C 
ATOM     80  OD1 ASP d   8    2006.260 612.715-2072.137  0.00  0.00    -0.648 OA
ATOM     81  OD2 ASP d   8    2006.004 613.441-2070.090  0.00  0.00    -0.648 OA
ENDBRANCH  78  79
ENDBRANCH  11  78
ENDBRANCH   8  11
ENDBRANCH   6   7
BRANCH   6  82
ATOM     82  CB  GLU d   9    2011.454 611.333-2068.493  0.00  0.00     0.045 C 
BRANCH  82  83
ATOM     83  CG  GLU d   9    2012.837 612.024-2068.262  0.00  0.00     0.116 C 
BRANCH  83  84
ATOM     84  CD  GLU d   9    2013.538 611.810-2066.934  0.00  0.00     0.172 C 
ATOM     85  OE1 GLU d   9    2013.016 611.119-2066.038  0.00  0.00    -0.648 OA
ATOM     86  OE2 GLU d   9    2014.657 612.348-2066.801  0.00  0.00    -0.648 OA
ENDBRANCH  83  84
ENDBRANCH  82  83
ENDBRANCH   6  82
ENDBRANCH   3   6
ENDBRANCH   1   2
BRANCH   1  87
ATOM     87  C   HIS d  10    2012.358 609.794-2073.536  0.00  0.00     0.241 C 
ATOM     88  O   HIS d  10    2013.211 610.260-2074.307  0.00  0.00    -0.271 OA
ATOM     89  N   VAL d  11    2011.120 609.794-2073.899  0.00  0.00    -0.346 N 
ATOM     90  H   VAL d  11    2010.407 609.421-2073.289  0.00  0.00     0.163 HD
BRANCH  89  91
ATOM     91  CA  VAL d  11    2010.766 610.341-2075.206  0.00  0.00     0.180 C 
BRANCH  91  92
ATOM     92  C   VAL d  11    2011.230 611.772-2075.337  0.00  0.00     0.241 C 
ATOM     93  O   VAL d  11    2011.832 612.177-2076.340  0.00  0.00    -0.271 OA
ATOM     94  N   ARG d  12    2010.993 612.597-2074.375  0.00  0.00    -0.346 N 
ATOM     95  H   ARG d  12    2010.504 612.291-2073.545  0.00  0.00     0.163 HD
BRANCH  94  96
ATOM     96  CA  ARG d  12    2011.442 613.980-2074.501  0.00  0.00     0.176 C 
BRANCH  96  97
ATOM     97  C   ARG d  12    2012.933 614.044-2074.739  0.00  0.00     0.241 C 
ATOM     98  O   ARG d  12    2013.422 614.751-2075.617  0.00  0.00    -0.271 OA
ATOM     99  N   ARG d  13    2013.715 613.336-2073.998  0.00  0.00    -0.346 N 
ATOM    100  H   ARG d  13    2013.337 612.747-2073.270  0.00  0.00     0.163 HD
BRANCH  99 101
ATOM    101  CA  ARG d  13    2015.156 613.398-2074.228  0.00  0.00     0.176 C 
BRANCH 101 102
ATOM    102  C   ARG d  13    2015.491 613.026-2075.653  0.00  0.00     0.241 C 
ATOM    103  O   ARG d  13    2016.262 613.695-2076.337  0.00  0.00    -0.271 OA
ATOM    104  N   VAL d  14    2014.953 611.972-2076.167  0.00  0.00    -0.346 N 
ATOM    105  H   VAL d  14    2014.316 611.405-2075.625  0.00  0.00     0.163 HD
BRANCH 104 106
ATOM    106  CA  VAL d  14    2015.277 611.612-2077.545  0.00  0.00     0.180 C 
BRANCH 106 107
ATOM    107  C   VAL d  14    2014.950 612.743-2078.490  0.00  0.00     0.241 C 
ATOM    108  O   VAL d  14    2015.744 613.122-2079.360  0.00  0.00    -0.271 OA
ATOM    109  N   MET d  15    2013.806 613.332-2078.389  0.00  0.00    -0.346 N 
ATOM    110  H   MET d  15    2013.141 613.040-2077.687  0.00  0.00     0.163 HD
BRANCH 109 111
ATOM    111  CA  MET d  15    2013.489 614.425-2079.303  0.00  0.00     0.177 C 
BRANCH 111 112
ATOM    112  C   MET d  15    2014.522 615.522-2079.215  0.00  0.00     0.241 C 
ATOM    113  O   MET d  15    2015.026 616.031-2080.228  0.00  0.00    -0.271 OA
ATOM    114  N   ARG d  16    2014.892 615.942-2078.052  0.00  0.00    -0.347 N 
ATOM    115  H   ARG d  16    2014.496 615.543-2077.213  0.00  0.00     0.163 HD
BRANCH 114 116
ATOM    116  CA  ARG d  16    2015.891 617.003-2077.969  0.00  0.00     0.162 C 
BRANCH 116 117
ATOM    117  C   ARG d  16    2017.161 616.607-2078.685  0.00  0.00     0.219 C 
ATOM    118  O   ARG d  16    2017.272 615.530-2079.266  0.00  0.00    -0.287 OA
ENDBRANCH 116 117
BRANCH 116 119
ATOM    119  CB  ARG d  16    2016.161 617.321-2076.470  0.00  0.00     0.035 C 
BRANCH 119 120
ATOM    120  CG  ARG d  16    2016.989 618.608-2076.198  0.00  0.00     0.023 C 
BRANCH 120 121
ATOM    121  CD  ARG d  16    2017.239 618.827-2074.697  0.00  0.00     0.138 C 
BRANCH 121 122
ATOM    122  NE  ARG d  16    2018.019 620.084-2074.496  0.00  0.00    -0.227 N 
ATOM    123  CZ  ARG d  16    2018.411 620.565-2073.320  0.00  0.00     0.665 C 
ATOM    124  NH1 ARG d  16    2018.162 619.982-2072.182  0.00  0.00    -0.235 N 
ATOM    125  NH2 ARG d  16    2019.078 621.676-2073.302  0.00  0.00    -0.235 N 
ATOM    126 11HH ARG d  16    2017.634 619.110-2072.266  0.00  0.00     0.174 HD
ATOM    127 12HH ARG d  16    2018.497 620.417-2071.320  0.00  0.00     0.174 HD
ATOM    128 21HH ARG d  16    2019.265 622.118-2074.204  0.00  0.00     0.174 HD
ATOM    129 22HH ARG d  16    2019.369 622.031-2072.389  0.00  0.00     0.174 HD
ATOM    130  HE  ARG d  16    2018.299 620.664-2075.293  0.00  0.00     0.177 HD
ENDBRANCH 121 122
ENDBRANCH 120 121
ENDBRANCH 119 120
ENDBRANCH 116 119
ENDBRANCH 114 116
ENDBRANCH 111 112
BRANCH 111 131
ATOM    131  CB  MET d  15    2012.069 614.974-2078.994  0.00  0.00     0.045 C 
BRANCH 131 132
ATOM    132  CG  MET d  15    2010.904 613.979-2079.186  0.00  0.00     0.076 C 
BRANCH 132 133
ATOM    133  SD  MET d  15    2009.333 614.849-2079.072  0.00  0.00    -0.173 SA
ATOM    134  CE  MET d  15    2008.248 613.422-2078.935  0.00  0.00     0.089 C 
ENDBRANCH 132 133
ENDBRANCH 131 132
ENDBRANCH 111 131
ENDBRANCH 109 111
ENDBRANCH 106 107
BRANCH 106 135
ATOM    135  CB  VAL d  14    2014.501 610.297-2077.952  0.00  0.00     0.009 C 
ATOM    136  CG1 VAL d  14    2014.589 609.878-2079.445  0.00  0.00     0.012 C 
ATOM    137  CG2 VAL d  14    2014.929 609.044-2077.151  0.00  0.00     0.012 C 
ENDBRANCH 106 135
ENDBRANCH 104 106
ENDBRANCH 101 102
BRANCH 101 138
ATOM    138  CB  ARG d  13    2015.866 612.457-2073.214  0.00  0.00     0.036 C 
BRANCH 138 139
ATOM    139  CG  ARG d  13    2017.411 612.607-2073.132  0.00  0.00     0.023 C 
BRANCH 139 140
ATOM    140  CD  ARG d  13    2018.036 611.617-2072.134  0.00  0.00     0.138 C 
BRANCH 140 141
ATOM    141  NE  ARG d  13    2019.513 611.821-2072.083  0.00  0.00    -0.227 N 
ATOM    142  CZ  ARG d  13    2020.359 611.128-2071.328  0.00  0.00     0.665 C 
ATOM    143  NH1 ARG d  13    2019.992 610.164-2070.530  0.00  0.00    -0.235 N 
ATOM    144  NH2 ARG d  13    2021.620 611.423-2071.384  0.00  0.00    -0.235 N 
ATOM    145 11HH ARG d  13    2018.986 609.980-2070.534  0.00  0.00     0.174 HD
ATOM    146 12HH ARG d  13    2020.703 609.679-2069.981  0.00  0.00     0.174 HD
ATOM    147 21HH ARG d  13    2021.889 612.181-2072.015  0.00  0.00     0.174 HD
ATOM    148 22HH ARG d  13    2022.253 610.880-2070.795  0.00  0.00     0.174 HD
ATOM    149  HE  ARG d  13    2019.967 612.542-2072.654  0.00  0.00     0.177 HD
ENDBRANCH 140 141
ENDBRANCH 139 140
ENDBRANCH 138 139
ENDBRANCH 101 138
ENDBRANCH  99 101
ENDBRANCH  96  97
BRANCH  96 150
ATOM    150  CB  ARG d  12    2011.039 614.758-2073.217  0.00  0.00     0.036 C 
BRANCH 150 151
ATOM    151  CG  ARG d  12    2011.193 616.303-2073.294  0.00  0.00     0.023 C 
BRANCH 151 152
ATOM    152  CD  ARG d  12    2010.808 616.989-2071.973  0.00  0.00     0.138 C 
BRANCH 152 153
ATOM    153  NE  ARG d  12    2010.955 618.468-2072.114  0.00  0.00    -0.227 N 
ATOM    154  CZ  ARG d  12    2010.711 619.359-2071.158  0.00  0.00     0.665 C 
ATOM    155  NH1 ARG d  12    2010.311 619.040-2069.959  0.00  0.00    -0.235 N 
ATOM    156  NH2 ARG d  12    2010.877 620.615-2071.430  0.00  0.00    -0.235 N 
ATOM    157 11HH ARG d  12    2010.201 618.035-2069.809  0.00  0.00     0.174 HD
ATOM    158 12HH ARG d  12    2010.144 619.785-2069.281  0.00  0.00     0.174 HD
ATOM    159 21HH ARG d  12    2011.192 620.846-2072.375  0.00  0.00     0.174 HD
ATOM    160 22HH ARG d  12    2010.683 621.284-2070.684  0.00  0.00     0.174 HD
ATOM    161  HE  ARG d  12    2011.264 618.885-2072.998  0.00  0.00     0.177 HD
ENDBRANCH 152 153
ENDBRANCH 151 152
ENDBRANCH 150 151
ENDBRANCH  96 150
ENDBRANCH  94  96
ENDBRANCH  91  92
BRANCH  91 162
ATOM    162  CB  VAL d  11    2009.204 610.235-2075.426  0.00  0.00     0.009 C 
ATOM    163  CG1 VAL d  11    2008.636 610.940-2076.688  0.00  0.00     0.012 C 
ATOM    164  CG2 VAL d  11    2008.680 608.781-2075.500  0.00  0.00     0.012 C 
ENDBRANCH  91 162
ENDBRANCH  89  91
ENDBRANCH   1  87
BRANCH   1 165
ATOM    165  CB  HIS d  10    2012.560 607.700-2072.181  0.00  0.00     0.095 C 
BRANCH 165 166
ATOM    166  CG  HIS d  10    2013.845 606.989-2071.873  0.00  0.00     0.053 A 
ATOM    167  CD2 HIS d  10    2014.225 606.653-2070.581  0.00  0.00     0.116 A 
ATOM    168  NE2 HIS d  10    2015.440 606.021-2070.647  0.00  0.00    -0.359 N 
ATOM    169  CE1 HIS d  10    2015.704 606.025-2071.982  0.00  0.00     0.207 A 
ATOM    170  2HE HIS d  10    2016.007 605.643-2069.874  0.00  0.00     0.166 HD
ATOM    171  ND1 HIS d  10    2014.797 606.584-2072.805  0.00  0.00    -0.247 NA
ENDBRANCH 165 166
ENDBRANCH   1 165
TORSDOF 69
