@<TRIPOS>MOLECULE
14-4
265 266 16              
SMALL
USER_CHARGES
@<TRIPOS>ATOM
1	   N	2192.438	668.881	-2275.099	N.3	1	GLU1	-0.516	
2	  CA	2192.997	670.230	-2275.099	C.3	1	GLU1	0.040	
3	   C	2194.506	670.190	-2275.099	C.2	1	GLU1	0.537	
4	   O	2195.182	670.889	-2275.868	O.2	1	GLU1	-0.582	
5	  CB	2192.474	671.015	-2273.862	C.3	1	GLU1	0.056	
6	  CG	2192.949	672.500	-2273.751	C.3	1	GLU1	0.014	
7	  CD	2192.525	673.304	-2272.536	C.2	1	GLU1	0.805	
8	 OE1	2191.797	672.802	-2271.658	O.co2	1	GLU1	-0.819	
9	 OE2	2192.955	674.474	-2272.464	O.co2	1	GLU1	-0.819	
10	   H	2193.065	668.002	-2275.099	 H	1	GLU1	0.294	
11	  HA	2192.671	670.748	-2276.019	 H	1	GLU1	0.111	
12	 2HB	2192.763	670.484	-2272.932	 H	1	GLU1	-0.017	
13	 3HB	2191.367	671.005	-2273.849	 H	1	GLU1	-0.017	
14	 2HG	2192.639	673.085	-2274.632	 H	1	GLU1	-0.043	
15	 3HG	2194.049	672.567	-2273.722	 H	1	GLU1	-0.043	
16	   N	2195.111	669.404	-2274.274	N.am	2	ASN2	-0.416	
17	  CA	2196.570	669.366	-2274.274	C.3	2	ASN2	0.014	
18	   C	2197.102	669.010	-2275.642	C.2	2	ASN2	0.597	
19	   O	2198.017	669.640	-2276.170	O.2	2	ASN2	-0.568	
20	  CB	2197.062	668.342	-2273.209	C.3	2	ASN2	-0.204	
21	  CG	2196.598	668.566	-2271.766	C.2	2	ASN2	0.713	
22	 ND2	2197.192	669.481	-2271.048	N.pl3	2	ASN2	-0.919	
23	 OD1	2195.677	667.933	-2271.272	O.2	2	ASN2	-0.593	
24	   H	2194.583	668.825	-2273.637	 H	2	ASN2	0.272	
25	  HA	2196.948	670.375	-2274.028	 H	2	ASN2	0.105	
26	 2HB	2198.166	668.283	-2273.212	 H	2	ASN2	0.080	
27	 3HB	2196.733	667.324	-2273.495	 H	2	ASN2	0.080	
28	1HD2	2196.711	669.655	-2270.161	 H	2	ASN2	0.420	
29	2HD2	2197.894	670.053	-2271.517	 H	2	ASN2	0.420	
30	   N	2196.580	668.015	-2276.277	N.am	3	PRO3	-0.255	
31	  CA	2197.032	667.606	-2277.598	C.3	3	PRO3	-0.027	
32	   C	2196.635	668.629	-2278.675	C.2	3	PRO3	0.590	
33	   O	2197.458	669.012	-2279.506	O.2	3	PRO3	-0.575	
34	  CB	2196.328	666.251	-2277.768	C.3	3	PRO3	-0.007	
35	  CG	2195.044	666.404	-2276.938	C.3	3	PRO3	0.019	
36	  CD	2195.502	667.222	-2275.728	C.3	3	PRO3	0.019	
37	  HA	2198.118	667.486	-2277.611	 H	3	PRO3	0.064	
38	 2HB	2196.951	665.470	-2277.327	 H	3	PRO3	0.025	
39	 3HB	2196.130	666.003	-2278.813	 H	3	PRO3	0.025	
40	 2HG	2194.616	665.442	-2276.647	 H	3	PRO3	0.021	
41	 3HG	2194.307	666.975	-2277.505	 H	3	PRO3	0.021	
42	 2HD	2195.891	666.572	-2274.940	 H	3	PRO3	0.039	
43	 3HD	2194.705	667.858	-2275.335	 H	3	PRO3	0.039	
44	   N	2195.430	669.090	-2278.708	N.am	4	GLU4	-0.516	
45	  CA	2195.071	670.061	-2279.738	C.3	4	GLU4	0.040	
46	   C	2195.970	671.271	-2279.676	C.2	4	GLU4	0.537	
47	   O	2196.497	671.751	-2280.690	O.2	4	GLU4	-0.582	
48	  CB	2193.582	670.480	-2279.568	C.3	4	GLU4	0.056	
49	  CG	2193.035	671.483	-2280.634	C.3	4	GLU4	0.014	
50	  CD	2191.608	671.980	-2280.490	C.2	4	GLU4	0.805	
51	 OE1	2190.881	671.582	-2279.560	O.co2	4	GLU4	-0.819	
52	 OE2	2191.219	672.810	-2281.339	O.co2	4	GLU4	-0.819	
53	   H	2194.745	668.783	-2278.031	 H	4	GLU4	0.294	
54	  HA	2195.202	669.590	-2280.729	 H	4	GLU4	0.111	
55	 2HB	2193.429	670.919	-2278.561	 H	4	GLU4	-0.017	
56	 3HB	2192.934	669.582	-2279.574	 H	4	GLU4	-0.017	
57	 2HG	2193.116	671.069	-2281.652	 H	4	GLU4	-0.043	
58	 3HG	2193.623	672.416	-2280.645	 H	4	GLU4	-0.043	
59	   N	2196.197	671.824	-2278.533	N.am	5	SER5	-0.416	
60	  CA	2197.067	672.995	-2278.474	C.3	5	SER5	-0.025	
61	   C	2198.426	672.689	-2279.059	C.2	5	SER5	0.597	
62	   O	2198.973	673.442	-2279.864	O.2	5	SER5	-0.568	
63	  CB	2197.178	673.527	-2277.023	C.3	5	SER5	0.212	
64	  OG	2197.909	672.648	-2276.162	O.3	5	SER5	-0.655	
65	   H	2195.779	671.452	-2277.691	 H	5	SER5	0.272	
66	  HA	2196.618	673.786	-2279.103	 H	5	SER5	0.084	
67	 2HB	2196.178	673.721	-2276.590	 H	5	SER5	0.035	
68	 3HB	2197.683	674.513	-2277.025	 H	5	SER5	0.035	
69	  HG	2197.420	671.823	-2276.112	 H	5	SER5	0.428	
70	   N	2199.030	671.606	-2278.705	N.am	6	ILE6	-0.416	
71	  CA	2200.343	671.310	-2279.271	C.3	6	ILE6	-0.060	
72	   C	2200.286	671.273	-2280.779	C.2	6	ILE6	0.597	
73	   O	2201.121	671.860	-2281.482	O.2	6	ILE6	-0.568	
74	  CB	2200.942	669.974	-2278.670	C.3	6	ILE6	0.130	
75	 CG1	2200.961	669.911	-2277.110	C.3	6	ILE6	-0.043	
76	 CG2	2202.383	669.672	-2279.186	C.3	6	ILE6	-0.320	
77	 CD1	2201.230	668.522	-2276.494	C.3	6	ILE6	-0.066	
78	   H	2198.601	670.971	-2278.046	 H	6	ILE6	0.272	
79	  HA	2201.017	672.144	-2279.003	 H	6	ILE6	0.087	
80	  HB	2200.284	669.148	-2279.015	 H	6	ILE6	0.019	
81	2HG1	2199.979	670.232	-2276.714	 H	6	ILE6	0.024	
82	3HG1	2201.677	670.653	-2276.705	 H	6	ILE6	0.024	
83	1HG2	2202.442	669.578	-2280.284	 H	6	ILE6	0.088	
84	2HG2	2203.106	670.454	-2278.883	 H	6	ILE6	0.088	
85	3HG2	2202.773	668.709	-2278.807	 H	6	ILE6	0.088	
86	1HD1	2200.502	667.768	-2276.849	 H	6	ILE6	0.019	
87	2HD1	2202.241	668.143	-2276.730	 H	6	ILE6	0.019	
88	3HD1	2201.154	668.552	-2275.392	 H	6	ILE6	0.019	
89	   N	2199.340	670.609	-2281.352	N.am	7	LEU7	-0.416	
90	  CA	2199.285	670.573	-2282.811	C.3	7	LEU7	-0.052	
91	   C	2199.213	671.969	-2283.384	C.2	7	LEU7	0.597	
92	   O	2199.934	672.330	-2284.326	O.2	7	LEU7	-0.568	
93	  CB	2198.082	669.713	-2283.291	C.3	7	LEU7	-0.110	
94	  CG	2198.008	668.234	-2282.824	C.3	7	LEU7	0.353	
95	 CD1	2196.818	667.529	-2283.490	C.3	7	LEU7	-0.412	
96	 CD2	2199.302	667.454	-2283.116	C.3	7	LEU7	-0.412	
97	   H	2198.648	670.123	-2280.801	 H	7	LEU7	0.272	
98	  HA	2200.227	670.133	-2283.185	 H	7	LEU7	0.092	
99	 2HB	2198.058	669.729	-2284.399	 H	7	LEU7	0.046	
100	 3HB	2197.142	670.216	-2282.987	 H	7	LEU7	0.046	
101	  HG	2197.838	668.226	-2281.727	 H	7	LEU7	-0.036	
102	1HD1	2195.861	668.038	-2283.267	 H	7	LEU7	0.100	
103	2HD1	2196.917	667.488	-2284.591	 H	7	LEU7	0.100	
104	3HD1	2196.711	666.487	-2283.134	 H	7	LEU7	0.100	
105	1HD2	2199.577	667.485	-2284.186	 H	7	LEU7	0.100	
106	2HD2	2200.155	667.866	-2282.544	 H	7	LEU7	0.100	
107	3HD2	2199.220	666.392	-2282.820	 H	7	LEU7	0.100	
108	   N	2198.376	672.810	-2282.878	N.am	8	ASP8	-0.516	
109	  CA	2198.306	674.159	-2283.432	C.3	8	ASP8	0.038	
110	   C	2199.653	674.838	-2283.375	C.2	8	ASP8	0.537	
111	   O	2200.126	675.442	-2284.350	O.2	8	ASP8	-0.582	
112	  CB	2197.229	674.999	-2282.691	C.3	8	ASP8	-0.030	
113	  CG	2197.010	676.420	-2283.232	C.2	8	ASP8	0.799	
114	 OD1	2197.075	676.618	-2284.463	O.co2	8	ASP8	-0.801	
115	 OD2	2196.819	677.346	-2282.417	O.co2	8	ASP8	-0.801	
116	   H	2197.778	672.539	-2282.110	 H	8	ASP8	0.294	
117	  HA	2198.023	674.081	-2284.499	 H	8	ASP8	0.088	
118	 2HB	2197.486	675.083	-2281.619	 H	8	ASP8	-0.012	
119	 3HB	2196.249	674.494	-2282.723	 H	8	ASP8	-0.012	
120	   N	2200.333	674.789	-2282.280	N.am	9	GLU9	-0.516	
121	  CA	2201.636	675.446	-2282.225	C.3	9	GLU9	0.040	
122	   C	2202.554	674.917	-2283.301	C.2	9	GLU9	0.537	
123	   O	2203.218	675.671	-2284.027	O.2	9	GLU9	-0.582	
124	  CB	2202.270	675.238	-2280.820	C.3	9	GLU9	0.056	
125	  CG	2203.653	675.930	-2280.591	C.3	9	GLU9	0.014	
126	  CD	2204.355	675.717	-2279.263	C.2	9	GLU9	0.805	
127	 OE1	2203.833	675.027	-2278.366	O.co2	9	GLU9	-0.819	
128	 OE2	2205.474	676.254	-2279.132	O.co2	9	GLU9	-0.819	
129	   H	2199.970	674.303	-2281.472	 H	9	GLU9	0.294	
130	  HA	2201.495	676.527	-2282.401	 H	9	GLU9	0.111	
131	 2HB	2202.382	674.154	-2280.616	 H	9	GLU9	-0.017	
132	 3HB	2201.573	675.592	-2280.035	 H	9	GLU9	-0.017	
133	 2HG	2203.581	677.021	-2280.731	 H	9	GLU9	-0.043	
134	 3HG	2204.399	675.584	-2281.325	 H	9	GLU9	-0.043	
135	   N	2202.650	673.642	-2283.470	N.am	10	HIS10	-0.416	
136	  CA	2203.537	673.129	-2284.510	C.3	10	HIS10	-0.058	
137	   C	2203.170	673.693	-2285.862	C.2	10	HIS10	0.597	
138	   O	2204.023	674.157	-2286.634	O.2	10	HIS10	-0.568	
139	  CB	2203.373	671.600	-2284.505	C.3	10	HIS10	-0.007	
140	  CG	2204.658	670.890	-2284.197	C.2	10	HIS10	0.187	
141	 CD2	2205.039	670.555	-2282.904	C.2	10	HIS10	-0.221	
142	 ND1	2205.609	670.483	-2285.129	N.2	10	HIS10	-0.543	
143	 CE1	2206.516	669.925	-2284.306	C.2	10	HIS10	0.163	
144	 NE2	2206.254	669.923	-2282.971	N.pl3	10	HIS10	-0.280	
145	   H	2202.119	673.007	-2282.891	 H	10	HIS10	0.272	
146	  HA	2204.557	673.486	-2284.286	 H	10	HIS10	0.136	
147	 2HB	2203.007	671.233	-2285.484	 H	10	HIS10	0.037	
148	 3HB	2202.617	671.264	-2283.764	 H	10	HIS10	0.037	
149	 2HD	2204.454	670.771	-2282.015	 H	10	HIS10	0.186	
150	 1HE	2207.406	669.503	-2284.753	 H	10	HIS10	0.144	
151	 2HE	2206.821	669.546	-2282.198	 H	10	HIS10	0.334	
152	   N	2201.932	673.693	-2286.224	N.am	11	VAL11	-0.416	
153	  CA	2201.577	674.238	-2287.531	C.3	11	VAL11	-0.087	
154	   C	2202.042	675.669	-2287.665	C.2	11	VAL11	0.597	
155	   O	2202.644	676.073	-2288.668	O.2	11	VAL11	-0.568	
156	  CB	2200.016	674.132	-2287.750	C.3	11	VAL11	0.299	
157	 CG1	2199.448	674.836	-2289.013	C.3	11	VAL11	-0.319	
158	 CG2	2199.491	672.679	-2287.823	C.3	11	VAL11	-0.319	
159	   H	2201.219	673.321	-2285.614	 H	11	VAL11	0.272	
160	  HA	2202.096	673.655	-2288.314	 H	11	VAL11	0.097	
161	  HB	2199.529	674.614	-2286.875	 H	11	VAL11	-0.030	
162	1HG1	2199.886	674.443	-2289.950	 H	11	VAL11	0.079	
163	2HG1	2198.348	674.729	-2289.095	 H	11	VAL11	0.079	
164	3HG1	2199.626	675.928	-2289.005	 H	11	VAL11	0.079	
165	1HG2	2199.780	672.092	-2286.932	 H	11	VAL11	0.079	
166	2HG2	2198.385	672.642	-2287.865	 H	11	VAL11	0.079	
167	3HG2	2199.872	672.137	-2288.709	 H	11	VAL11	0.079	
168	   N	2201.806	676.495	-2286.703	N.am	12	GLN12	-0.416	
169	  CA	2202.255	677.878	-2286.831	C.3	12	GLN12	-0.003	
170	   C	2203.745	677.944	-2287.069	C.2	12	GLN12	0.597	
171	   O	2204.232	678.652	-2287.948	O.2	12	GLN12	-0.568	
172	  CB	2201.865	678.646	-2285.548	C.3	12	GLN12	-0.004	
173	  CG	2202.226	680.168	-2285.518	C.3	12	GLN12	-0.064	
174	  CD	2201.925	680.982	-2284.254	C.2	12	GLN12	0.695	
175	 NE2	2201.358	680.406	-2283.224	N.pl3	12	GLN12	-0.941	
176	 OE1	2202.227	682.163	-2284.177	O.2	12	GLN12	-0.609	
177	   H	2201.317	676.190	-2285.873	 H	12	GLN12	0.272	
178	  HA	2201.756	678.334	-2287.706	 H	12	GLN12	0.085	
179	 2HB	2202.341	678.146	-2284.679	 H	12	GLN12	0.017	
180	 3HB	2200.775	678.539	-2285.385	 H	12	GLN12	0.017	
181	 2HG	2201.749	680.688	-2286.369	 H	12	GLN12	0.035	
182	 3HG	2203.310	680.309	-2285.684	 H	12	GLN12	0.035	
183	1HE2	2201.251	681.001	-2282.401	 H	12	GLN12	0.425	
184	2HE2	2201.193	679.403	-2283.327	 H	12	GLN12	0.425	
185	   N	2204.530	677.237	-2286.328	N.am	13	ARG13	-0.348	
186	  CA	2205.970	677.302	-2286.559	C.3	13	ARG13	-0.264	
187	   C	2206.306	676.930	-2287.984	C.2	13	ARG13	0.734	
188	   O	2207.074	677.601	-2288.668	O.2	13	ARG13	-0.589	
189	  CB	2206.683	676.364	-2285.544	C.3	13	ARG13	-0.001	
190	  CG	2208.228	676.517	-2285.464	C.3	13	ARG13	0.039	
191	  CD	2208.855	675.530	-2284.466	C.3	13	ARG13	0.049	
192	  NE	2210.332	675.737	-2284.416	N.pl3	13	ARG13	-0.530	
193	  CZ	2211.181	675.045	-2283.660	C.cat	13	ARG13	0.808	
194	 NH1	2210.816	674.082	-2282.862	N.pl3	13	ARG13	-0.863	
195	 NH2	2212.440	675.344	-2283.718	N.pl3	13	ARG13	-0.863	
196	   H	2204.153	676.648	-2285.599	 H	13	ARG13	0.275	
197	  HA	2206.295	678.349	-2286.401	 H	13	ARG13	0.156	
198	 2HB	2206.417	675.314	-2285.783	 H	13	ARG13	0.033	
199	 3HB	2206.258	676.532	-2284.534	 H	13	ARG13	0.033	
200	 2HG	2208.477	677.562	-2285.186	 H	13	ARG13	0.029	
201	 3HG	2208.679	676.360	-2286.466	 H	13	ARG13	0.029	
202	 2HD	2208.610	674.490	-2284.774	 H	13	ARG13	0.069	
203	 3HD	2208.399	675.676	-2283.463	 H	13	ARG13	0.069	
204	  HE	2210.784	676.458	-2284.987	 H	13	ARG13	0.346	
205	1HH1	2209.810	673.896	-2282.865	 H	13	ARG13	0.448	
206	2HH1	2211.529	673.599	-2282.313	 H	13	ARG13	0.448	
207	1HH2	2212.708	676.101	-2284.350	 H	13	ARG13	0.448	
208	2HH2	2213.076	674.803	-2283.129	 H	13	ARG13	0.448	
209	   N	2205.769	675.875	-2288.497	N.am	14	VAL14	-0.416	
210	  CA	2206.094	675.515	-2289.875	C.3	14	VAL14	-0.087	
211	   C	2205.764	676.645	-2290.821	C.2	14	VAL14	0.597	
212	   O	2206.557	677.026	-2291.690	O.2	14	VAL14	-0.568	
213	  CB	2205.321	674.198	-2290.281	C.3	14	VAL14	0.299	
214	 CG1	2205.409	673.779	-2291.774	C.3	14	VAL14	-0.319	
215	 CG2	2205.752	672.946	-2289.480	C.3	14	VAL14	-0.319	
216	   H	2205.134	675.307	-2287.955	 H	14	VAL14	0.272	
217	  HA	2207.182	675.338	-2289.950	 H	14	VAL14	0.097	
218	  HB	2204.244	674.370	-2290.064	 H	14	VAL14	-0.030	
219	1HG1	2206.450	673.602	-2292.103	 H	14	VAL14	0.079	
220	2HG1	2204.836	672.856	-2291.986	 H	14	VAL14	0.079	
221	3HG1	2204.980	674.541	-2292.452	 H	14	VAL14	0.079	
222	1HG2	2205.665	673.105	-2288.389	 H	14	VAL14	0.079	
223	2HG2	2205.116	672.070	-2289.711	 H	14	VAL14	0.079	
224	3HG2	2206.800	672.656	-2289.686	 H	14	VAL14	0.079	
225	   N	2204.619	677.231	-2290.719	N.am	15	MET15	-0.416	
226	  CA	2204.299	678.323	-2291.633	C.3	15	MET15	-0.024	
227	   C	2205.329	679.423	-2291.546	C.2	15	MET15	0.597	
228	   O	2205.832	679.934	-2292.559	O.2	15	MET15	-0.568	
229	  CB	2202.877	678.869	-2291.324	C.3	15	MET15	0.034	
230	  CG	2201.715	677.871	-2291.515	C.3	15	MET15	0.002	
231	  SD	2200.141	678.738	-2291.401	S.3	15	MET15	-0.274	
232	  CE	2199.060	677.308	-2291.263	C.3	15	MET15	-0.054	
233	   H	2203.954	676.938	-2290.017	 H	15	MET15	0.272	
234	  HA	2204.324	677.936	-2292.668	 H	15	MET15	0.088	
235	 2HB	2202.675	679.748	-2291.966	 H	15	MET15	0.024	
236	 3HB	2202.842	679.262	-2290.288	 H	15	MET15	0.024	
237	 2HG	2201.758	677.086	-2290.737	 H	15	MET15	0.044	
238	 3HG	2201.778	677.356	-2292.491	 H	15	MET15	0.044	
239	 1HE	2199.203	676.620	-2292.115	 H	15	MET15	0.068	
240	 2HE	2199.270	676.756	-2290.330	 H	15	MET15	0.068	
241	 3HE	2198.003	677.624	-2291.247	 H	15	MET15	0.068	
242	   N	2205.698	679.845	-2290.384	N.am	16	ARG16	-0.348	
243	  CA	2206.695	680.909	-2290.301	C.3	16	ARG16	-0.264	
244	   C	2207.965	680.516	-2291.017	C.2	16	ARG16	0.734	
245	   O	2208.079	679.439	-2291.598	O.2	16	ARG16	-0.589	
246	  CB	2206.964	681.227	-2288.802	C.3	16	ARG16	-0.001	
247	  CG	2207.789	682.516	-2288.530	C.3	16	ARG16	0.039	
248	  CD	2208.039	682.736	-2287.029	C.3	16	ARG16	0.049	
249	  NE	2208.815	683.995	-2286.828	N.pl3	16	ARG16	-0.530	
250	  CZ	2209.207	684.478	-2285.653	C.cat	16	ARG16	0.808	
251	 NH1	2208.959	683.894	-2284.514	N.pl3	16	ARG16	-0.863	
252	 NH2	2209.871	685.590	-2285.635	N.pl3	16	ARG16	-0.863	
253	   H	2205.303	679.445	-2289.544	 H	16	ARG16	0.275	
254	  HA	2206.286	681.801	-2290.811	 H	16	ARG16	0.156	
255	 2HB	2207.461	680.351	-2288.336	 H	16	ARG16	0.033	
256	 3HB	2205.995	681.308	-2288.268	 H	16	ARG16	0.033	
257	 2HG	2207.259	683.387	-2288.967	 H	16	ARG16	0.029	
258	 3HG	2208.763	682.463	-2289.059	 H	16	ARG16	0.029	
259	 2HD	2208.588	681.862	-2286.615	 H	16	ARG16	0.069	
260	 3HD	2207.066	682.779	-2286.493	 H	16	ARG16	0.069	
261	  HE	2209.094	684.576	-2287.626	 H	16	ARG16	0.346	
262	1HH1	2208.434	683.021	-2284.598	 H	16	ARG16	0.448	
263	2HH1	2209.294	684.330	-2283.653	 H	16	ARG16	0.448	
264	1HH2	2210.056	686.033	-2286.537	 H	16	ARG16	0.448	
265	2HH2	2210.161	685.946	-2284.723	 H	16	ARG16	0.448	
@<TRIPOS>BOND
1 1 2 1
2 1 10 1
3 2 3 1
4 2 5 1
5 2 11 1
6 3 4 2
7 3 16 1
8 5 6 1
9 6 7 1
10 7 8 2
11 7 9 1
12 5 12 1
13 5 13 1
14 6 14 1
15 6 15 1
16 16 17 1
17 16 24 1
18 17 18 1
19 17 20 1
20 17 25 1
21 18 19 2
22 18 30 1
23 20 21 1
24 21 22 1
25 21 23 2
26 20 26 1
27 20 27 1
28 22 28 1
29 22 29 1
30 30 31 1
31 30 36 1
32 31 32 1
33 31 34 1
34 31 37 1
35 32 33 2
36 32 44 1
37 34 35 1
38 35 36 1
39 34 38 1
40 34 39 1
41 35 40 1
42 35 41 1
43 36 42 1
44 36 43 1
45 44 45 1
46 44 53 1
47 45 46 1
48 45 48 1
49 45 54 1
50 46 47 2
51 46 59 1
52 48 49 1
53 49 50 1
54 50 51 2
55 50 52 1
56 48 55 1
57 48 56 1
58 49 57 1
59 49 58 1
60 59 60 1
61 59 65 1
62 60 61 1
63 60 63 1
64 60 66 1
65 61 62 2
66 61 70 1
67 63 64 1
68 63 67 1
69 63 68 1
70 64 69 1
71 70 71 1
72 70 78 1
73 71 72 1
74 71 74 1
75 71 79 1
76 72 73 2
77 72 89 1
78 74 75 1
79 74 76 1
80 75 77 1
81 74 80 1
82 75 81 1
83 75 82 1
84 76 83 1
85 76 84 1
86 76 85 1
87 77 86 1
88 77 87 1
89 77 88 1
90 89 90 1
91 89 97 1
92 90 91 1
93 90 93 1
94 90 98 1
95 91 92 2
96 91 108 1
97 93 94 1
98 94 95 1
99 94 96 1
100 93 99 1
101 93 100 1
102 94 101 1
103 95 102 1
104 95 103 1
105 95 104 1
106 96 105 1
107 96 106 1
108 96 107 1
109 108 109 1
110 108 116 1
111 109 110 1
112 109 112 1
113 109 117 1
114 110 111 2
115 110 120 1
116 112 113 1
117 113 114 2
118 113 115 1
119 112 118 1
120 112 119 1
121 120 121 1
122 120 129 1
123 121 122 1
124 121 124 1
125 121 130 1
126 122 123 2
127 122 135 1
128 124 125 1
129 125 126 1
130 126 127 2
131 126 128 1
132 124 131 1
133 124 132 1
134 125 133 1
135 125 134 1
136 135 136 1
137 135 145 1
138 136 137 1
139 136 139 1
140 136 146 1
141 137 138 2
142 137 152 1
143 139 140 1
144 140 141 2
145 141 144 1
146 140 142 1
147 142 143 2
148 143 144 1
149 139 147 1
150 139 148 1
151 141 149 1
152 143 150 1
153 144 151 1
154 152 153 1
155 152 159 1
156 153 154 1
157 153 156 1
158 153 160 1
159 154 155 2
160 154 168 1
161 156 157 1
162 156 158 1
163 156 161 1
164 157 162 1
165 157 163 1
166 157 164 1
167 158 165 1
168 158 166 1
169 158 167 1
170 168 169 1
171 168 177 1
172 169 170 1
173 169 172 1
174 169 178 1
175 170 171 2
176 170 185 1
177 172 173 1
178 173 174 1
179 174 175 1
180 174 176 2
181 172 179 1
182 172 180 1
183 173 181 1
184 173 182 1
185 175 183 1
186 175 184 1
187 185 186 1
188 185 196 1
189 186 187 1
190 186 189 1
191 186 197 1
192 187 188 2
193 187 209 1
194 189 190 1
195 190 191 1
196 191 192 1
197 192 193 1
198 193 194 2
199 193 195 1
200 189 198 1
201 189 199 1
202 190 200 1
203 190 201 1
204 191 202 1
205 191 203 1
206 192 204 1
207 194 205 1
208 194 206 1
209 195 207 1
210 195 208 1
211 209 210 1
212 209 216 1
213 210 211 1
214 210 213 1
215 210 217 1
216 211 212 2
217 211 225 1
218 213 214 1
219 213 215 1
220 213 218 1
221 214 219 1
222 214 220 1
223 214 221 1
224 215 222 1
225 215 223 1
226 215 224 1
227 225 226 1
228 225 233 1
229 226 227 1
230 226 229 1
231 226 234 1
232 227 228 2
233 227 242 1
234 229 230 1
235 230 231 1
236 231 232 1
237 229 235 1
238 229 236 1
239 230 237 1
240 230 238 1
241 232 239 1
242 232 240 1
243 232 241 1
244 242 243 1
245 242 253 1
246 243 244 1
247 243 246 1
248 243 254 1
249 244 245 2
250 246 247 1
251 247 248 1
252 248 249 1
253 249 250 1
254 250 251 2
255 250 252 1
256 246 255 1
257 246 256 1
258 247 257 1
259 247 258 1
260 248 259 1
261 248 260 1
262 249 261 1
263 251 262 1
264 251 263 1
265 252 264 1
266 252 265 1
@<TRIPOS>SUBSTRUCTURE
1	GLU1	1	RESIDUE	1 ****	GLU
2	ASN2	16	RESIDUE	1 ****	ASN
3	PRO3	30	RESIDUE	1 ****	PRO
4	GLU4	44	RESIDUE	1 ****	GLU
5	SER5	59	RESIDUE	1 ****	SER
6	ILE6	70	RESIDUE	1 ****	ILE
7	LEU7	89	RESIDUE	1 ****	LEU
8	ASP8	108	RESIDUE	1 ****	ASP
9	GLU9	120	RESIDUE	1 ****	GLU
10	HIS10	135	RESIDUE	1 ****	HIS
11	VAL11	152	RESIDUE	1 ****	VAL
12	GLN12	168	RESIDUE	1 ****	GLN
13	ARG13	185	RESIDUE	1 ****	ARG
14	VAL14	209	RESIDUE	1 ****	VAL
15	MET15	225	RESIDUE	1 ****	MET
16	ARG16	242	RESIDUE	1 ****	ARG
