REMARK WARNING: 32 MAX_TORS EXCEEDED!!!
REMARK  66 active torsions:
REMARK  status: ('A' for Active; 'I' for Inactive)
REMARK    1  A    between atoms: N_1  and  CA_2 
REMARK    2  A    between atoms: CA_2  and  C_3 
REMARK    3  A    between atoms: CA_2  and  CB_5 
REMARK       I    between atoms: C_3  and  N_11 
REMARK    4  A    between atoms: CB_5  and  CG_6 
REMARK    5  A    between atoms: CG_6  and  CD_7 
REMARK    6  A    between atoms: N_11  and  CA_12 
REMARK    7  A    between atoms: CA_12  and  C_13 
REMARK    8  A    between atoms: CA_12  and  CB_15 
REMARK       I    between atoms: C_13  and  N_22 
REMARK    9  A    between atoms: CB_15  and  CG_16 
REMARK       I    between atoms: CG_16  and  ND2_17 
REMARK   10  A    between atoms: CA_23  and  C_24 
REMARK       I    between atoms: C_24  and  N_29 
REMARK   11  A    between atoms: N_29  and  CA_30 
REMARK   12  A    between atoms: CA_30  and  C_31 
REMARK   13  A    between atoms: CA_30  and  CB_33 
REMARK       I    between atoms: C_31  and  N_39 
REMARK   14  A    between atoms: CB_33  and  CG_34 
REMARK   15  A    between atoms: CG_34  and  CD_35 
REMARK   16  A    between atoms: N_39  and  CA_40 
REMARK   17  A    between atoms: CA_40  and  C_41 
REMARK   18  A    between atoms: CA_40  and  CB_43 
REMARK       I    between atoms: C_41  and  N_47 
REMARK   19  A    between atoms: CB_43  and  OG_44 
REMARK   20  A    between atoms: N_47  and  CA_48 
REMARK   21  A    between atoms: CA_48  and  C_49 
REMARK   22  A    between atoms: CA_48  and  CB_51 
REMARK       I    between atoms: C_49  and  N_56 
REMARK   23  A    between atoms: CB_51  and  CG1_52 
REMARK   24  A    between atoms: N_56  and  CA_57 
REMARK   25  A    between atoms: CA_57  and  C_58 
REMARK   26  A    between atoms: CA_57  and  CB_60 
REMARK       I    between atoms: C_58  and  N_65 
REMARK   27  A    between atoms: CB_60  and  CG_61 
REMARK   28  A    between atoms: N_65  and  CA_66 
REMARK   29  A    between atoms: CA_66  and  C_67 
REMARK   30  A    between atoms: CA_66  and  CB_69 
REMARK       I    between atoms: C_67  and  N_74 
REMARK   31  A    between atoms: CB_69  and  CG_70 
REMARK   32  A    between atoms: N_74  and  CA_75 
REMARK   33  A    between atoms: CA_75  and  C_76 
REMARK   34  A    between atoms: CA_75  and  CB_78 
REMARK       I    between atoms: C_76  and  N_84 
REMARK   35  A    between atoms: CB_78  and  CG_79 
REMARK   36  A    between atoms: CG_79  and  CD_80 
REMARK   37  A    between atoms: N_84  and  CA_85 
REMARK   38  A    between atoms: CA_85  and  C_86 
REMARK       I    between atoms: C_86  and  N_89 
REMARK   39  A    between atoms: N_89  and  CA_90 
REMARK   40  A    between atoms: CA_90  and  C_91 
REMARK   41  A    between atoms: CA_90  and  CB_93 
REMARK       I    between atoms: C_91  and  N_97 
REMARK   42  A    between atoms: N_97  and  CA_98 
REMARK   43  A    between atoms: CA_98  and  C_99 
REMARK   44  A    between atoms: CA_98  and  CB_101 
REMARK       I    between atoms: C_99  and  N_109 
REMARK   45  A    between atoms: CB_101  and  CG_102 
REMARK   46  A    between atoms: CG_102  and  CD_103 
REMARK       I    between atoms: CD_103  and  NE2_104 
REMARK   47  A    between atoms: N_109  and  CA_110 
REMARK   48  A    between atoms: CA_110  and  C_111 
REMARK   49  A    between atoms: CA_110  and  CB_113 
REMARK       I    between atoms: C_111  and  N_126 
REMARK   50  A    between atoms: CB_113  and  CG_114 
REMARK   51  A    between atoms: CG_114  and  CD_115 
REMARK   52  A    between atoms: CD_115  and  NE_116 
REMARK       I    between atoms: NE_116  and  CZ_117 
REMARK       I    between atoms: CZ_117  and  NH1_118 
REMARK       I    between atoms: CZ_117  and  NH2_119 
REMARK   53  A    between atoms: N_126  and  CA_127 
REMARK   54  A    between atoms: CA_127  and  C_128 
REMARK   55  A    between atoms: CA_127  and  CB_130 
REMARK       I    between atoms: C_128  and  N_134 
REMARK   56  A    between atoms: N_134  and  CA_135 
REMARK   57  A    between atoms: CA_135  and  C_136 
REMARK   58  A    between atoms: CA_135  and  CB_138 
REMARK       I    between atoms: C_136  and  N_143 
REMARK   59  A    between atoms: CB_138  and  CG_139 
REMARK   60  A    between atoms: CG_139  and  SD_140 
REMARK   61  A    between atoms: N_143  and  CA_144 
REMARK   62  A    between atoms: CA_144  and  C_145 
REMARK   63  A    between atoms: CA_144  and  CB_147 
REMARK   64  A    between atoms: CB_147  and  CG_148 
REMARK   65  A    between atoms: CG_148  and  CD_149 
REMARK   66  A    between atoms: CD_149  and  NE_150 
REMARK       I    between atoms: NE_150  and  CZ_151 
REMARK       I    between atoms: CZ_151  and  NH1_152 
ROOT
ATOM      1  CA  GLU d   9    1542.770 460.023-1562.580  0.00  0.00     0.177 C 
ENDROOT
BRANCH   1   2
ATOM      2  N   GLU d   9    1541.468 459.366-1562.636  0.00  0.00    -0.346 N 
ATOM      3  C   ASP d   8    1540.788 459.416-1563.731  0.00  0.00     0.241 C 
ATOM      4  O   ASP d   8    1541.260 460.021-1564.705  0.00  0.00    -0.271 OA
ATOM      5  H   GLU d   9    1541.104 458.879-1561.829  0.00  0.00     0.163 HD
BRANCH   3   6
ATOM      6  CA  ASP d   8    1539.441 458.736-1563.788  0.00  0.00     0.186 C 
BRANCH   6   7
ATOM      7  N   ASP d   8    1539.512 457.386-1563.235  0.00  0.00    -0.346 N 
ATOM      8  C   LEU d   7    1540.349 456.546-1563.742  0.00  0.00     0.241 C 
ATOM      9  O   LEU d   7    1541.069 456.909-1564.684  0.00  0.00    -0.271 OA
ATOM     10  H   ASP d   8    1538.914 457.115-1562.468  0.00  0.00     0.163 HD
BRANCH   8  11
ATOM     11  CA  LEU d   7    1540.422 455.150-1563.170  0.00  0.00     0.177 C 
BRANCH  11  12
ATOM     12  N   LEU d   7    1540.477 455.186-1561.711  0.00  0.00    -0.346 N 
ATOM     13  C   ILE d   6    1541.422 455.850-1561.138  0.00  0.00     0.241 C 
ATOM     14  O   ILE d   6    1542.257 456.438-1561.842  0.00  0.00    -0.271 OA
ATOM     15  H   LEU d   7    1539.785 454.699-1561.160  0.00  0.00     0.163 HD
BRANCH  13  16
ATOM     16  CA  ILE d   6    1541.480 455.887-1559.630  0.00  0.00     0.180 C 
BRANCH  16  17
ATOM     17  N   ILE d   6    1540.167 456.182-1559.063  0.00  0.00    -0.346 N 
ATOM     18  C   SER d   5    1539.562 457.265-1559.417  0.00  0.00     0.243 C 
ATOM     19  O   SER d   5    1540.109 458.018-1560.222  0.00  0.00    -0.271 OA
ATOM     20  H   ILE d   6    1539.738 455.547-1558.404  0.00  0.00     0.163 HD
BRANCH  18  21
ATOM     21  CA  SER d   5    1538.203 457.570-1558.832  0.00  0.00     0.200 C 
BRANCH  21  22
ATOM     22  N   SER d   5    1537.334 456.399-1558.890  0.00  0.00    -0.344 N 
ATOM     23  C   GLU d   4    1537.106 455.846-1560.033  0.00  0.00     0.241 C 
ATOM     24  O   GLU d   4    1537.632 456.326-1561.048  0.00  0.00    -0.271 OA
ATOM     25  H   SER d   5    1536.917 456.027-1558.048  0.00  0.00     0.163 HD
BRANCH  23  26
ATOM     26  CA  GLU d   4    1536.207 454.635-1560.094  0.00  0.00     0.177 C 
BRANCH  26  27
ATOM     27  N   GLU d   4    1536.567 453.664-1559.065  0.00  0.00    -0.346 N 
ATOM     28  C   PRO d   3    1537.772 453.204-1559.032  0.00  0.00     0.241 C 
ATOM     29  O   PRO d   3    1538.595 453.587-1559.864  0.00  0.00    -0.271 OA
ATOM     30  H   GLU d   4    1535.883 453.357-1558.388  0.00  0.00     0.163 HD
BRANCH  28  31
ATOM     31  CA  PRO d   3    1538.170 452.180-1557.956  0.00  0.00     0.179 C 
ATOM     32  N   PRO d   3    1537.718 452.590-1556.634  0.00  0.00    -0.337 N 
ATOM     33  C   ASN d   2    1538.240 453.585-1556.000  0.00  0.00     0.243 C 
ATOM     34  CD  PRO d   3    1536.640 451.796-1556.085  0.00  0.00     0.127 C 
ATOM     35  O   ASN d   2    1539.155 454.215-1556.529  0.00  0.00    -0.271 OA
ATOM     36  CG  PRO d   3    1536.183 450.978-1557.295  0.00  0.00     0.022 C 
ATOM     37  CB  PRO d   3    1537.466 450.826-1558.125  0.00  0.00     0.037 C 
BRANCH  33  38
ATOM     38  CA  ASN d   2    1537.709 453.940-1554.631  0.00  0.00     0.185 C 
BRANCH  38  39
ATOM     39  N   ASN d   2    1536.249 453.979-1554.631  0.00  0.00    -0.346 N 
ATOM     40  C   GLU d   1    1535.645 454.765-1555.456  0.00  0.00     0.242 C 
ATOM     41  O   GLU d   1    1536.321 455.464-1556.225  0.00  0.00    -0.271 OA
ATOM     42  H   ASN d   2    1535.721 453.399-1553.995  0.00  0.00     0.163 HD
BRANCH  40  43
ATOM     43  CA  GLU d   1    1534.136 454.805-1555.456  0.00  0.00     0.191 C 
BRANCH  43  44
ATOM     44  N   GLU d   1    1533.577 453.456-1555.456  0.00  0.00    -0.326 NA
ATOM     45  H   GLU d   1    1534.204 452.577-1555.456  0.00  0.00     0.180 HD
ENDBRANCH  43  44
BRANCH  43  46
ATOM     46  CB  GLU d   1    1533.613 455.590-1554.219  0.00  0.00     0.047 C 
BRANCH  46  47
ATOM     47  CG  GLU d   1    1534.088 457.075-1554.108  0.00  0.00     0.116 C 
BRANCH  47  48
ATOM     48  CD  GLU d   1    1533.664 457.879-1552.893  0.00  0.00     0.172 C 
ATOM     49  OE1 GLU d   1    1532.936 457.377-1552.015  0.00  0.00    -0.648 OA
ATOM     50  OE2 GLU d   1    1534.094 459.049-1552.821  0.00  0.00    -0.648 OA
ENDBRANCH  47  48
ENDBRANCH  46  47
ENDBRANCH  43  46
ENDBRANCH  40  43
ENDBRANCH  38  39
BRANCH  38  51
ATOM     51  CB  ASN d   2    1538.201 452.917-1553.567  0.00  0.00     0.137 C 
BRANCH  51  52
ATOM     52  CG  ASN d   2    1537.738 453.141-1552.124  0.00  0.00     0.217 C 
ATOM     53  ND2 ASN d   2    1538.332 454.056-1551.405  0.00  0.00    -0.370 N 
ATOM     54 21HD ASN d   2    1537.851 454.229-1550.519  0.00  0.00     0.159 HD
ATOM     55 22HD ASN d   2    1539.034 454.628-1551.875  0.00  0.00     0.159 HD
ATOM     56  OD1 ASN d   2    1536.817 452.507-1551.629  0.00  0.00    -0.274 OA
ENDBRANCH  51  52
ENDBRANCH  38  51
ENDBRANCH  33  38
ENDBRANCH  28  31
ENDBRANCH  26  27
BRANCH  26  57
ATOM     57  CB  GLU d   4    1534.719 455.053-1559.924  0.00  0.00     0.045 C 
BRANCH  57  58
ATOM     58  CG  GLU d   4    1534.170 456.057-1560.989  0.00  0.00     0.116 C 
BRANCH  58  59
ATOM     59  CD  GLU d   4    1532.744 456.554-1560.845  0.00  0.00     0.172 C 
ATOM     60  OE1 GLU d   4    1532.018 456.155-1559.914  0.00  0.00    -0.648 OA
ATOM     61  OE2 GLU d   4    1532.354 457.383-1561.694  0.00  0.00    -0.648 OA
ENDBRANCH  58  59
ENDBRANCH  57  58
ENDBRANCH  26  57
ENDBRANCH  23  26
ENDBRANCH  21  22
BRANCH  21  62
ATOM     62  CB  SER d   5    1538.315 458.102-1557.381  0.00  0.00     0.199 C 
BRANCH  62  63
ATOM     63  OG  SER d   5    1539.047 457.223-1556.520  0.00  0.00    -0.398 OA
ATOM     64  HG  SER d   5    1538.558 456.398-1556.469  0.00  0.00     0.209 HD
ENDBRANCH  62  63
ENDBRANCH  21  62
ENDBRANCH  18  21
ENDBRANCH  16  17
BRANCH  16  65
ATOM     65  CB  ILE d   6    1542.080 454.551-1559.030  0.00  0.00     0.013 C 
ATOM     66  CG2 ILE d   6    1543.521 454.249-1559.545  0.00  0.00     0.012 C 
BRANCH  65  67
ATOM     67  CG1 ILE d   6    1542.099 454.488-1557.469  0.00  0.00     0.002 C 
ATOM     68  CD1 ILE d   6    1542.369 453.099-1556.854  0.00  0.00     0.005 C 
ENDBRANCH  65  67
ENDBRANCH  16  65
ENDBRANCH  13  16
ENDBRANCH  11  12
BRANCH  11  69
ATOM     69  CB  LEU d   7    1539.219 454.290-1563.650  0.00  0.00     0.038 C 
BRANCH  69  70
ATOM     70  CG  LEU d   7    1539.146 452.811-1563.184  0.00  0.00    -0.020 C 
ATOM     71  CD1 LEU d   7    1537.956 452.105-1563.849  0.00  0.00     0.009 C 
ATOM     72  CD2 LEU d   7    1540.439 452.032-1563.476  0.00  0.00     0.009 C 
ENDBRANCH  69  70
ENDBRANCH  11  69
ENDBRANCH   8  11
ENDBRANCH   6   7
BRANCH   6  73
ATOM     73  CB  ASP d   8    1538.363 459.575-1563.046  0.00  0.00     0.147 C 
BRANCH  73  74
ATOM     74  CG  ASP d   8    1538.144 460.996-1563.586  0.00  0.00     0.175 C 
ATOM     75  OD1 ASP d   8    1538.208 461.195-1564.817  0.00  0.00    -0.648 OA
ATOM     76  OD2 ASP d   8    1537.952 461.921-1562.771  0.00  0.00    -0.648 OA
ENDBRANCH  73  74
ENDBRANCH   6  73
ENDBRANCH   3   6
ENDBRANCH   1   2
BRANCH   1  77
ATOM     77  C   GLU d   9    1543.688 459.496-1563.657  0.00  0.00     0.240 C 
ATOM     78  O   GLU d   9    1544.352 460.251-1564.382  0.00  0.00    -0.271 OA
ATOM     79  N   GLY d  10    1543.785 458.221-1563.827  0.00  0.00    -0.351 N 
ATOM     80  H   GLY d  10    1543.254 457.585-1563.249  0.00  0.00     0.163 HD
BRANCH  79  81
ATOM     81  CA  GLY d  10    1544.673 457.712-1564.868  0.00  0.00     0.225 C 
BRANCH  81  82
ATOM     82  C   GLY d  10    1544.305 458.278-1566.218  0.00  0.00     0.236 C 
ATOM     83  O   GLY d  10    1545.152 458.742-1566.985  0.00  0.00    -0.272 OA
ATOM     84  N   VAL d  11    1543.067 458.277-1566.580  0.00  0.00    -0.346 N 
ATOM     85  H   VAL d  11    1542.354 457.902-1565.969  0.00  0.00     0.163 HD
BRANCH  84  86
ATOM     86  CA  VAL d  11    1542.710 458.825-1567.885  0.00  0.00     0.180 C 
BRANCH  86  87
ATOM     87  C   VAL d  11    1543.173 460.256-1568.016  0.00  0.00     0.241 C 
ATOM     88  O   VAL d  11    1543.773 460.663-1569.018  0.00  0.00    -0.271 OA
ATOM     89  N   GLN d  12    1542.936 461.080-1567.052  0.00  0.00    -0.346 N 
ATOM     90  H   GLN d  12    1542.448 460.772-1566.223  0.00  0.00     0.163 HD
BRANCH  89  91
ATOM     91  CA  GLN d  12    1543.383 462.463-1567.177  0.00  0.00     0.177 C 
BRANCH  91  92
ATOM     92  C   GLN d  12    1544.873 462.533-1567.415  0.00  0.00     0.241 C 
ATOM     93  O   GLN d  12    1545.359 463.243-1568.293  0.00  0.00    -0.271 OA
ATOM     94  N   ARG d  13    1545.658 461.825-1566.676  0.00  0.00    -0.346 N 
ATOM     95  H   ARG d  13    1545.283 461.234-1565.948  0.00  0.00     0.163 HD
BRANCH  94  96
ATOM     96  CA  ARG d  13    1547.099 461.893-1566.907  0.00  0.00     0.176 C 
BRANCH  96  97
ATOM     97  C   ARG d  13    1547.434 461.524-1568.333  0.00  0.00     0.241 C 
ATOM     98  O   ARG d  13    1548.202 462.198-1569.016  0.00  0.00    -0.271 OA
ATOM     99  N   VAL d  14    1546.899 460.470-1568.849  0.00  0.00    -0.346 N 
ATOM    100  H   VAL d  14    1546.265 459.900-1568.308  0.00  0.00     0.163 HD
BRANCH  99 101
ATOM    101  CA  VAL d  14    1547.224 460.114-1570.228  0.00  0.00     0.180 C 
BRANCH 101 102
ATOM    102  C   VAL d  14    1546.892 461.245-1571.171  0.00  0.00     0.241 C 
ATOM    103  O   VAL d  14    1547.685 461.629-1572.040  0.00  0.00    -0.271 OA
ATOM    104  N   MET d  15    1545.747 461.830-1571.068  0.00  0.00    -0.346 N 
ATOM    105  H   MET d  15    1545.083 461.535-1570.367  0.00  0.00     0.163 HD
BRANCH 104 106
ATOM    106  CA  MET d  15    1545.426 462.924-1571.979  0.00  0.00     0.177 C 
BRANCH 106 107
ATOM    107  C   MET d  15    1546.455 464.025-1571.890  0.00  0.00     0.241 C 
ATOM    108  O   MET d  15    1546.957 464.538-1572.901  0.00  0.00    -0.271 OA
ATOM    109  N   ARG d  16    1546.824 464.444-1570.727  0.00  0.00    -0.347 N 
ATOM    110  H   ARG d  16    1546.429 464.042-1569.888  0.00  0.00     0.163 HD
BRANCH 109 111
ATOM    111  CA  ARG d  16    1547.819 465.508-1570.641  0.00  0.00     0.162 C 
BRANCH 111 112
ATOM    112  C   ARG d  16    1549.090 465.118-1571.358  0.00  0.00     0.219 C 
ATOM    113  O   ARG d  16    1549.205 464.043-1571.942  0.00  0.00    -0.287 OA
ENDBRANCH 111 112
BRANCH 111 114
ATOM    114  CB  ARG d  16    1548.088 465.824-1569.142  0.00  0.00     0.035 C 
BRANCH 114 115
ATOM    115  CG  ARG d  16    1548.913 467.113-1568.867  0.00  0.00     0.023 C 
BRANCH 115 116
ATOM    116  CD  ARG d  16    1549.162 467.329-1567.365  0.00  0.00     0.138 C 
BRANCH 116 117
ATOM    117  NE  ARG d  16    1549.938 468.589-1567.162  0.00  0.00    -0.227 N 
ATOM    118  CZ  ARG d  16    1550.329 469.069-1565.986  0.00  0.00     0.665 C 
ATOM    119  NH1 ARG d  16    1550.082 468.482-1564.848  0.00  0.00    -0.235 N 
ATOM    120  NH2 ARG d  16    1550.992 470.182-1565.965  0.00  0.00    -0.235 N 
ATOM    121 11HH ARG d  16    1549.557 467.609-1564.934  0.00  0.00     0.174 HD
ATOM    122 12HH ARG d  16    1550.416 468.917-1563.986  0.00  0.00     0.174 HD
ATOM    123 21HH ARG d  16    1551.177 470.627-1566.866  0.00  0.00     0.174 HD
ATOM    124 22HH ARG d  16    1551.282 470.536-1565.052  0.00  0.00     0.174 HD
ATOM    125  HE  ARG d  16    1550.215 469.171-1567.958  0.00  0.00     0.177 HD
ENDBRANCH 116 117
ENDBRANCH 115 116
ENDBRANCH 114 115
ENDBRANCH 111 114
ENDBRANCH 109 111
ENDBRANCH 106 107
BRANCH 106 126
ATOM    126  CB  MET d  15    1544.004 463.468-1571.669  0.00  0.00     0.045 C 
BRANCH 126 127
ATOM    127  CG  MET d  15    1542.843 462.469-1571.862  0.00  0.00     0.076 C 
BRANCH 127 128
ATOM    128  SD  MET d  15    1541.268 463.334-1571.746  0.00  0.00    -0.173 SA
ATOM    129  CE  MET d  15    1540.188 461.903-1571.612  0.00  0.00     0.089 C 
ENDBRANCH 127 128
ENDBRANCH 126 127
ENDBRANCH 106 126
ENDBRANCH 104 106
ENDBRANCH 101 102
BRANCH 101 130
ATOM    130  CB  VAL d  14    1546.452 458.797-1570.637  0.00  0.00     0.009 C 
ATOM    131  CG1 VAL d  14    1546.541 458.382-1572.131  0.00  0.00     0.012 C 
ATOM    132  CG2 VAL d  14    1546.885 457.543-1569.839  0.00  0.00     0.012 C 
ENDBRANCH 101 130
ENDBRANCH  99 101
ENDBRANCH  96  97
BRANCH  96 133
ATOM    133  CB  ARG d  13    1547.813 460.952-1565.895  0.00  0.00     0.036 C 
BRANCH 133 134
ATOM    134  CG  ARG d  13    1549.358 461.106-1565.815  0.00  0.00     0.023 C 
BRANCH 134 135
ATOM    135  CD  ARG d  13    1549.986 460.117-1564.819  0.00  0.00     0.138 C 
BRANCH 135 136
ATOM    136  NE  ARG d  13    1551.463 460.326-1564.769  0.00  0.00    -0.227 N 
ATOM    137  CZ  ARG d  13    1552.312 459.633-1564.015  0.00  0.00     0.665 C 
ATOM    138  NH1 ARG d  13    1551.948 458.667-1563.220  0.00  0.00    -0.235 N 
ATOM    139  NH2 ARG d  13    1553.571 459.933-1564.072  0.00  0.00    -0.235 N 
ATOM    140 11HH ARG d  13    1550.943 458.480-1563.223  0.00  0.00     0.174 HD
ATOM    141 12HH ARG d  13    1552.662 458.183-1562.672  0.00  0.00     0.174 HD
ATOM    142 21HH ARG d  13    1553.838 460.693-1564.702  0.00  0.00     0.174 HD
ATOM    143 22HH ARG d  13    1554.207 459.391-1563.485  0.00  0.00     0.174 HD
ATOM    144  HE  ARG d  13    1551.913 461.049-1565.338  0.00  0.00     0.177 HD
ENDBRANCH 135 136
ENDBRANCH 134 135
ENDBRANCH 133 134
ENDBRANCH  96 133
ENDBRANCH  94  96
ENDBRANCH  91  92
BRANCH  91 145
ATOM    145  CB  GLN d  12    1542.992 463.228-1565.892  0.00  0.00     0.044 C 
BRANCH 145 146
ATOM    146  CG  GLN d  12    1543.351 464.750-1565.859  0.00  0.00     0.105 C 
BRANCH 146 147
ATOM    147  CD  GLN d  12    1543.049 465.561-1564.592  0.00  0.00     0.215 C 
ATOM    148  NE2 GLN d  12    1542.483 464.982-1563.564  0.00  0.00    -0.370 N 
ATOM    149 21HE GLN d  12    1542.375 465.575-1562.739  0.00  0.00     0.159 HD
ATOM    150 22HE GLN d  12    1542.320 463.979-1563.669  0.00  0.00     0.159 HD
ATOM    151  OE1 GLN d  12    1543.349 466.742-1564.512  0.00  0.00    -0.274 OA
ENDBRANCH 146 147
ENDBRANCH 145 146
ENDBRANCH  91 145
ENDBRANCH  89  91
ENDBRANCH  86  87
BRANCH  86 152
ATOM    152  CB  VAL d  11    1541.149 458.717-1568.104  0.00  0.00     0.009 C 
ATOM    153  CG1 VAL d  11    1540.579 459.423-1569.365  0.00  0.00     0.012 C 
ATOM    154  CG2 VAL d  11    1540.625 457.263-1568.179  0.00  0.00     0.012 C 
ENDBRANCH  86 152
ENDBRANCH  84  86
ENDBRANCH  81  82
ENDBRANCH  79  81
ENDBRANCH   1  77
BRANCH   1 155
ATOM    155  CB  GLU d   9    1543.404 459.815-1561.175  0.00  0.00     0.045 C 
BRANCH 155 156
ATOM    156  CG  GLU d   9    1544.786 460.508-1560.946  0.00  0.00     0.116 C 
BRANCH 156 157
ATOM    157  CD  GLU d   9    1545.489 460.294-1559.617  0.00  0.00     0.172 C 
ATOM    158  OE1 GLU d   9    1544.967 459.602-1558.721  0.00  0.00    -0.648 OA
ATOM    159  OE2 GLU d   9    1546.608 460.832-1559.486  0.00  0.00    -0.648 OA
ENDBRANCH 156 157
ENDBRANCH 155 156
ENDBRANCH   1 155
TORSDOF 66
