REMARK WARNING: 32 MAX_TORS EXCEEDED!!!
REMARK  68 active torsions:
REMARK  status: ('A' for Active; 'I' for Inactive)
REMARK    1  A    between atoms: N_1  and  CA_2 
REMARK    2  A    between atoms: CA_2  and  C_3 
REMARK    3  A    between atoms: CA_2  and  CB_5 
REMARK       I    between atoms: C_3  and  N_11 
REMARK    4  A    between atoms: CB_5  and  CG_6 
REMARK    5  A    between atoms: CG_6  and  CD_7 
REMARK    6  A    between atoms: N_11  and  CA_12 
REMARK    7  A    between atoms: CA_12  and  C_13 
REMARK    8  A    between atoms: CA_12  and  CB_15 
REMARK       I    between atoms: C_13  and  N_22 
REMARK    9  A    between atoms: CB_15  and  CG_16 
REMARK       I    between atoms: CG_16  and  ND2_17 
REMARK   10  A    between atoms: CA_23  and  C_24 
REMARK       I    between atoms: C_24  and  N_29 
REMARK   11  A    between atoms: N_29  and  CA_30 
REMARK   12  A    between atoms: CA_30  and  C_31 
REMARK   13  A    between atoms: CA_30  and  CB_33 
REMARK       I    between atoms: C_31  and  N_39 
REMARK   14  A    between atoms: CB_33  and  CG_34 
REMARK   15  A    between atoms: CG_34  and  CD_35 
REMARK   16  A    between atoms: N_39  and  CA_40 
REMARK   17  A    between atoms: CA_40  and  C_41 
REMARK   18  A    between atoms: CA_40  and  CB_43 
REMARK       I    between atoms: C_41  and  N_47 
REMARK   19  A    between atoms: CB_43  and  OG_44 
REMARK   20  A    between atoms: N_47  and  CA_48 
REMARK   21  A    between atoms: CA_48  and  C_49 
REMARK   22  A    between atoms: CA_48  and  CB_51 
REMARK       I    between atoms: C_49  and  N_56 
REMARK   23  A    between atoms: CB_51  and  CG1_52 
REMARK   24  A    between atoms: N_56  and  CA_57 
REMARK   25  A    between atoms: CA_57  and  C_58 
REMARK   26  A    between atoms: CA_57  and  CB_60 
REMARK       I    between atoms: C_58  and  N_65 
REMARK   27  A    between atoms: CB_60  and  CG_61 
REMARK   28  A    between atoms: N_65  and  CA_66 
REMARK   29  A    between atoms: CA_66  and  C_67 
REMARK   30  A    between atoms: CA_66  and  CB_69 
REMARK       I    between atoms: C_67  and  N_74 
REMARK   31  A    between atoms: CB_69  and  CG_70 
REMARK   32  A    between atoms: N_74  and  CA_75 
REMARK   33  A    between atoms: CA_75  and  C_76 
REMARK   34  A    between atoms: CA_75  and  CB_78 
REMARK       I    between atoms: C_76  and  N_84 
REMARK   35  A    between atoms: CB_78  and  CG_79 
REMARK   36  A    between atoms: CG_79  and  CD_80 
REMARK   37  A    between atoms: N_84  and  CA_85 
REMARK   38  A    between atoms: CA_85  and  C_86 
REMARK   39  A    between atoms: CA_85  and  CB_88 
REMARK       I    between atoms: C_86  and  N_96 
REMARK   40  A    between atoms: CB_88  and  CG_89 
REMARK   41  A    between atoms: N_96  and  CA_97 
REMARK   42  A    between atoms: CA_97  and  C_98 
REMARK   43  A    between atoms: CA_97  and  CB_100 
REMARK       I    between atoms: C_98  and  N_104 
REMARK   44  A    between atoms: N_104  and  CA_105 
REMARK   45  A    between atoms: CA_105  and  C_106 
REMARK   46  A    between atoms: CA_105  and  CB_108 
REMARK       I    between atoms: C_106  and  N_116 
REMARK   47  A    between atoms: CB_108  and  CG_109 
REMARK   48  A    between atoms: CG_109  and  CD_110 
REMARK       I    between atoms: CD_110  and  NE2_111 
REMARK   49  A    between atoms: N_116  and  CA_117 
REMARK   50  A    between atoms: CA_117  and  C_118 
REMARK   51  A    between atoms: CA_117  and  CB_120 
REMARK       I    between atoms: C_118  and  N_133 
REMARK   52  A    between atoms: CB_120  and  CG_121 
REMARK   53  A    between atoms: CG_121  and  CD_122 
REMARK   54  A    between atoms: CD_122  and  NE_123 
REMARK       I    between atoms: NE_123  and  CZ_124 
REMARK       I    between atoms: CZ_124  and  NH1_125 
REMARK       I    between atoms: CZ_124  and  NH2_126 
REMARK   55  A    between atoms: N_133  and  CA_134 
REMARK   56  A    between atoms: CA_134  and  C_135 
REMARK   57  A    between atoms: CA_134  and  CB_137 
REMARK       I    between atoms: C_135  and  N_141 
REMARK   58  A    between atoms: N_141  and  CA_142 
REMARK   59  A    between atoms: CA_142  and  C_143 
REMARK   60  A    between atoms: CA_142  and  CB_145 
REMARK       I    between atoms: C_143  and  N_153 
REMARK   61  A    between atoms: CB_145  and  CG_146 
REMARK   62  A    between atoms: CG_146  and  CD_147 
REMARK       I    between atoms: CD_147  and  NE2_148 
REMARK   63  A    between atoms: N_153  and  CA_154 
REMARK   64  A    between atoms: CA_154  and  C_155 
REMARK   65  A    between atoms: CA_154  and  CB_157 
REMARK   66  A    between atoms: CB_157  and  CG_158 
REMARK   67  A    between atoms: CG_158  and  CD_159 
REMARK   68  A    between atoms: CD_159  and  NE_160 
REMARK       I    between atoms: NE_160  and  CZ_161 
REMARK       I    between atoms: CZ_161  and  NH1_162 
ROOT
ATOM      1  C   GLU d   9    2467.294 759.636-2568.056  0.00  0.00     0.241 C 
ATOM      2  O   GLU d   9    2467.958 760.390-2568.782  0.00  0.00    -0.271 OA
ATOM      3  N   HIS d  10    2467.390 758.361-2568.225  0.00  0.00    -0.346 N 
ATOM      4  H   HIS d  10    2466.859 757.726-2567.646  0.00  0.00     0.163 HD
ENDROOT
BRANCH   3   5
ATOM      5  CA  HIS d  10    2468.277 757.848-2569.265  0.00  0.00     0.182 C 
BRANCH   5   6
ATOM      6  C   HIS d  10    2467.910 758.412-2570.616  0.00  0.00     0.241 C 
ATOM      7  O   HIS d  10    2468.763 758.876-2571.389  0.00  0.00    -0.271 OA
ATOM      8  N   VAL d  11    2466.673 758.412-2570.979  0.00  0.00    -0.346 N 
ATOM      9  H   VAL d  11    2465.959 758.040-2570.368  0.00  0.00     0.163 HD
BRANCH   8  10
ATOM     10  CA  VAL d  11    2466.317 758.958-2572.286  0.00  0.00     0.180 C 
BRANCH  10  11
ATOM     11  C   VAL d  11    2466.783 760.388-2572.420  0.00  0.00     0.241 C 
ATOM     12  O   VAL d  11    2467.384 760.792-2573.423  0.00  0.00    -0.271 OA
ATOM     13  N   GLN d  12    2466.546 761.214-2571.458  0.00  0.00    -0.346 N 
ATOM     14  H   GLN d  12    2466.058 760.909-2570.628  0.00  0.00     0.163 HD
BRANCH  13  15
ATOM     15  CA  GLN d  12    2466.996 762.597-2571.585  0.00  0.00     0.177 C 
BRANCH  15  16
ATOM     16  C   GLN d  12    2468.485 762.663-2571.824  0.00  0.00     0.241 C 
ATOM     17  O   GLN d  12    2468.973 763.371-2572.703  0.00  0.00    -0.271 OA
ATOM     18  N   ARG d  13    2469.270 761.956-2571.083  0.00  0.00    -0.346 N 
ATOM     19  H   ARG d  13    2468.894 761.367-2570.354  0.00  0.00     0.163 HD
BRANCH  18  20
ATOM     20  CA  ARG d  13    2470.710 762.022-2571.314  0.00  0.00     0.176 C 
BRANCH  20  21
ATOM     21  C   ARG d  13    2471.046 761.649-2572.739  0.00  0.00     0.241 C 
ATOM     22  O   ARG d  13    2471.815 762.320-2573.423  0.00  0.00    -0.271 OA
ATOM     23  N   VAL d  14    2470.509 760.595-2573.252  0.00  0.00    -0.346 N 
ATOM     24  H   VAL d  14    2469.874 760.026-2572.710  0.00  0.00     0.163 HD
BRANCH  23  25
ATOM     25  CA  VAL d  14    2470.834 760.234-2574.630  0.00  0.00     0.180 C 
BRANCH  25  26
ATOM     26  C   VAL d  14    2470.504 761.364-2575.576  0.00  0.00     0.241 C 
ATOM     27  O   VAL d  14    2471.297 761.745-2576.445  0.00  0.00    -0.271 OA
ATOM     28  N   GLN d  15    2469.359 761.950-2575.474  0.00  0.00    -0.346 N 
ATOM     29  H   GLN d  15    2468.694 761.658-2574.772  0.00  0.00     0.163 HD
BRANCH  28  30
ATOM     30  CA  GLN d  15    2469.039 763.042-2576.388  0.00  0.00     0.177 C 
BRANCH  30  31
ATOM     31  C   GLN d  15    2470.071 764.142-2576.300  0.00  0.00     0.241 C 
ATOM     32  O   GLN d  15    2470.569 764.648-2577.303  0.00  0.00    -0.271 OA
ATOM     33  N   ARG d  16    2470.440 764.564-2575.138  0.00  0.00    -0.347 N 
ATOM     34  H   ARG d  16    2470.045 764.164-2574.299  0.00  0.00     0.163 HD
BRANCH  33  35
ATOM     35  CA  ARG d  16    2471.437 765.627-2575.055  0.00  0.00     0.162 C 
BRANCH  35  36
ATOM     36  C   ARG d  16    2472.707 765.234-2575.771  0.00  0.00     0.219 C 
ATOM     37  O   ARG d  16    2472.821 764.157-2576.352  0.00  0.00    -0.287 OA
ENDBRANCH  35  36
BRANCH  35  38
ATOM     38  CB  ARG d  16    2471.706 765.946-2573.557  0.00  0.00     0.035 C 
BRANCH  38  39
ATOM     39  CG  ARG d  16    2472.531 767.234-2573.284  0.00  0.00     0.023 C 
BRANCH  39  40
ATOM     40  CD  ARG d  16    2472.781 767.454-2571.783  0.00  0.00     0.138 C 
BRANCH  40  41
ATOM     41  NE  ARG d  16    2473.558 768.712-2571.583  0.00  0.00    -0.227 N 
ATOM     42  CZ  ARG d  16    2473.949 769.195-2570.407  0.00  0.00     0.665 C 
ATOM     43  NH1 ARG d  16    2473.701 768.611-2569.268  0.00  0.00    -0.235 N 
ATOM     44  NH2 ARG d  16    2474.614 770.308-2570.389  0.00  0.00    -0.235 N 
ATOM     45 11HH ARG d  16    2473.176 767.739-2569.353  0.00  0.00     0.174 HD
ATOM     46 12HH ARG d  16    2474.036 769.047-2568.407  0.00  0.00     0.174 HD
ATOM     47 21HH ARG d  16    2474.800 770.750-2571.291  0.00  0.00     0.174 HD
ATOM     48 22HH ARG d  16    2474.904 770.663-2569.476  0.00  0.00     0.174 HD
ATOM     49  HE  ARG d  16    2473.836 769.293-2572.380  0.00  0.00     0.177 HD
ENDBRANCH  40  41
ENDBRANCH  39  40
ENDBRANCH  38  39
ENDBRANCH  35  38
ENDBRANCH  33  35
ENDBRANCH  30  31
BRANCH  30  50
ATOM     50  CB  GLN d  15    2467.630 763.576-2576.047  0.00  0.00     0.044 C 
BRANCH  50  51
ATOM     51  CG  GLN d  15    2467.090 764.729-2576.956  0.00  0.00     0.105 C 
BRANCH  51  52
ATOM     52  CD  GLN d  15    2465.724 765.351-2576.641  0.00  0.00     0.215 C 
ATOM     53  NE2 GLN d  15    2465.019 764.906-2575.633  0.00  0.00    -0.370 N 
ATOM     54 21HE GLN d  15    2464.153 765.417-2575.452  0.00  0.00     0.159 HD
ATOM     55 22HE GLN d  15    2465.472 764.177-2575.078  0.00  0.00     0.159 HD
ATOM     56  OE1 GLN d  15    2465.286 766.279-2577.303  0.00  0.00    -0.274 OA
ENDBRANCH  51  52
ENDBRANCH  50  51
ENDBRANCH  30  50
ENDBRANCH  28  30
ENDBRANCH  25  26
BRANCH  25  57
ATOM     57  CB  VAL d  14    2470.061 758.917-2575.036  0.00  0.00     0.009 C 
ATOM     58  CG1 VAL d  14    2470.149 758.498-2576.529  0.00  0.00     0.012 C 
ATOM     59  CG2 VAL d  14    2470.492 757.665-2574.235  0.00  0.00     0.012 C 
ENDBRANCH  25  57
ENDBRANCH  23  25
ENDBRANCH  20  21
BRANCH  20  60
ATOM     60  CB  ARG d  13    2471.423 761.083-2570.299  0.00  0.00     0.036 C 
BRANCH  60  61
ATOM     61  CG  ARG d  13    2472.969 761.236-2570.219  0.00  0.00     0.023 C 
BRANCH  61  62
ATOM     62  CD  ARG d  13    2473.595 760.249-2569.221  0.00  0.00     0.138 C 
BRANCH  62  63
ATOM     63  NE  ARG d  13    2475.073 760.456-2569.171  0.00  0.00    -0.227 N 
ATOM     64  CZ  ARG d  13    2475.921 759.764-2568.415  0.00  0.00     0.665 C 
ATOM     65  NH1 ARG d  13    2475.556 758.801-2567.617  0.00  0.00    -0.235 N 
ATOM     66  NH2 ARG d  13    2477.180 760.063-2568.473  0.00  0.00    -0.235 N 
ATOM     67 11HH ARG d  13    2474.550 758.615-2567.620  0.00  0.00     0.174 HD
ATOM     68 12HH ARG d  13    2476.269 758.318-2567.068  0.00  0.00     0.174 HD
ATOM     69 21HH ARG d  13    2477.448 760.820-2569.104  0.00  0.00     0.174 HD
ATOM     70 22HH ARG d  13    2477.816 759.522-2567.884  0.00  0.00     0.174 HD
ATOM     71  HE  ARG d  13    2475.524 761.177-2569.742  0.00  0.00     0.177 HD
ENDBRANCH  62  63
ENDBRANCH  61  62
ENDBRANCH  60  61
ENDBRANCH  20  60
ENDBRANCH  18  20
ENDBRANCH  15  16
BRANCH  15  72
ATOM     72  CB  GLN d  12    2466.605 763.365-2570.303  0.00  0.00     0.044 C 
BRANCH  72  73
ATOM     73  CG  GLN d  12    2466.967 764.887-2570.273  0.00  0.00     0.105 C 
BRANCH  73  74
ATOM     74  CD  GLN d  12    2466.665 765.701-2569.009  0.00  0.00     0.215 C 
ATOM     75  NE2 GLN d  12    2466.098 765.125-2567.979  0.00  0.00    -0.370 N 
ATOM     76 21HE GLN d  12    2465.991 765.720-2567.156  0.00  0.00     0.159 HD
ATOM     77 22HE GLN d  12    2465.934 764.122-2568.082  0.00  0.00     0.159 HD
ATOM     78  OE1 GLN d  12    2466.968 766.882-2568.932  0.00  0.00    -0.274 OA
ENDBRANCH  73  74
ENDBRANCH  72  73
ENDBRANCH  15  72
ENDBRANCH  13  15
ENDBRANCH  10  11
BRANCH  10  79
ATOM     79  CB  VAL d  11    2464.756 758.852-2572.505  0.00  0.00     0.009 C 
ATOM     80  CG1 VAL d  11    2464.188 759.555-2573.768  0.00  0.00     0.012 C 
ATOM     81  CG2 VAL d  11    2464.231 757.398-2572.577  0.00  0.00     0.012 C 
ENDBRANCH  10  79
ENDBRANCH   8  10
ENDBRANCH   5   6
BRANCH   5  82
ATOM     82  CB  HIS d  10    2468.113 756.320-2569.260  0.00  0.00     0.095 C 
BRANCH  82  83
ATOM     83  CG  HIS d  10    2469.398 755.609-2568.951  0.00  0.00     0.053 A 
ATOM     84  CD2 HIS d  10    2469.780 755.274-2567.659  0.00  0.00     0.116 A 
ATOM     85  NE2 HIS d  10    2470.994 754.642-2567.726  0.00  0.00    -0.359 N 
ATOM     86  CE1 HIS d  10    2471.256 754.644-2569.061  0.00  0.00     0.207 A 
ATOM     87  2HE HIS d  10    2471.561 754.265-2566.952  0.00  0.00     0.166 HD
ATOM     88  ND1 HIS d  10    2470.350 755.202-2569.884  0.00  0.00    -0.247 NA
ENDBRANCH  82  83
ENDBRANCH   5  82
ENDBRANCH   3   5
BRANCH   1  89
ATOM     89  CA  GLU d   9    2466.377 760.165-2566.980  0.00  0.00     0.177 C 
BRANCH  89  90
ATOM     90  N   GLU d   9    2465.073 759.508-2567.035  0.00  0.00    -0.346 N 
ATOM     91  C   ASP d   8    2464.394 759.557-2568.130  0.00  0.00     0.241 C 
ATOM     92  O   ASP d   8    2464.866 760.161-2569.105  0.00  0.00    -0.271 OA
ATOM     93  H   GLU d   9    2464.710 759.022-2566.227  0.00  0.00     0.163 HD
BRANCH  91  94
ATOM     94  CA  ASP d   8    2463.046 758.878-2568.187  0.00  0.00     0.186 C 
BRANCH  94  95
ATOM     95  N   ASP d   8    2463.116 757.529-2567.633  0.00  0.00    -0.346 N 
ATOM     96  C   LEU d   7    2463.953 756.688-2568.138  0.00  0.00     0.241 C 
ATOM     97  O   LEU d   7    2464.674 757.049-2569.081  0.00  0.00    -0.271 OA
ATOM     98  H   ASP d   8    2462.518 757.258-2566.865  0.00  0.00     0.163 HD
BRANCH  96  99
ATOM     99  CA  LEU d   7    2464.025 755.292-2567.565  0.00  0.00     0.177 C 
BRANCH  99 100
ATOM    100  N   LEU d   7    2464.080 755.328-2566.107  0.00  0.00    -0.346 N 
ATOM    101  C   ILE d   6    2465.026 755.992-2565.533  0.00  0.00     0.241 C 
ATOM    102  O   ILE d   6    2465.861 756.579-2566.237  0.00  0.00    -0.271 OA
ATOM    103  H   LEU d   7    2463.388 754.842-2565.556  0.00  0.00     0.163 HD
BRANCH 101 104
ATOM    104  CA  ILE d   6    2465.083 756.029-2564.026  0.00  0.00     0.180 C 
BRANCH 104 105
ATOM    105  N   ILE d   6    2463.770 756.325-2563.460  0.00  0.00    -0.346 N 
ATOM    106  C   SER d   5    2463.166 757.408-2563.814  0.00  0.00     0.243 C 
ATOM    107  O   SER d   5    2463.714 758.161-2564.619  0.00  0.00    -0.271 OA
ATOM    108  H   ILE d   6    2463.341 755.690-2562.801  0.00  0.00     0.163 HD
BRANCH 106 109
ATOM    109  CA  SER d   5    2461.807 757.714-2563.229  0.00  0.00     0.200 C 
BRANCH 109 110
ATOM    110  N   SER d   5    2460.937 756.543-2563.288  0.00  0.00    -0.344 N 
ATOM    111  C   GLU d   4    2460.710 755.990-2564.431  0.00  0.00     0.241 C 
ATOM    112  O   GLU d   4    2461.237 756.470-2565.445  0.00  0.00    -0.271 OA
ATOM    113  H   SER d   5    2460.520 756.172-2562.446  0.00  0.00     0.163 HD
BRANCH 111 114
ATOM    114  CA  GLU d   4    2459.811 754.780-2564.492  0.00  0.00     0.177 C 
BRANCH 114 115
ATOM    115  N   GLU d   4    2460.170 753.809-2563.463  0.00  0.00    -0.346 N 
ATOM    116  C   PRO d   3    2461.375 753.348-2563.430  0.00  0.00     0.241 C 
ATOM    117  O   PRO d   3    2462.198 753.731-2564.261  0.00  0.00    -0.271 OA
ATOM    118  H   GLU d   4    2459.485 753.502-2562.786  0.00  0.00     0.163 HD
BRANCH 116 119
ATOM    119  CA  PRO d   3    2461.772 752.325-2562.353  0.00  0.00     0.179 C 
ATOM    120  N   PRO d   3    2461.320 752.734-2561.031  0.00  0.00    -0.337 N 
ATOM    121  C   ASN d   2    2461.842 753.729-2560.397  0.00  0.00     0.243 C 
ATOM    122  CD  PRO d   3    2460.242 751.941-2560.483  0.00  0.00     0.127 C 
ATOM    123  O   ASN d   2    2462.757 754.359-2560.925  0.00  0.00    -0.271 OA
ATOM    124  CG  PRO d   3    2459.784 751.123-2561.693  0.00  0.00     0.022 C 
ATOM    125  CB  PRO d   3    2461.068 750.970-2562.522  0.00  0.00     0.037 C 
BRANCH 121 126
ATOM    126  CA  ASN d   2    2461.310 754.085-2559.029  0.00  0.00     0.185 C 
BRANCH 126 127
ATOM    127  N   ASN d   2    2459.851 754.124-2559.029  0.00  0.00    -0.346 N 
ATOM    128  C   GLU d   1    2459.247 754.909-2559.854  0.00  0.00     0.242 C 
ATOM    129  O   GLU d   1    2459.922 755.608-2560.623  0.00  0.00    -0.271 OA
ATOM    130  H   ASN d   2    2459.323 753.544-2558.392  0.00  0.00     0.163 HD
BRANCH 128 131
ATOM    131  CA  GLU d   1    2457.738 754.949-2559.854  0.00  0.00     0.191 C 
BRANCH 131 132
ATOM    132  N   GLU d   1    2457.178 753.600-2559.854  0.00  0.00    -0.326 NA
ATOM    133  H   GLU d   1    2457.805 752.721-2559.854  0.00  0.00     0.180 HD
ENDBRANCH 131 132
BRANCH 131 134
ATOM    134  CB  GLU d   1    2457.214 755.734-2558.617  0.00  0.00     0.047 C 
BRANCH 134 135
ATOM    135  CG  GLU d   1    2457.689 757.219-2558.506  0.00  0.00     0.116 C 
BRANCH 135 136
ATOM    136  CD  GLU d   1    2457.265 758.023-2557.291  0.00  0.00     0.172 C 
ATOM    137  OE1 GLU d   1    2456.537 757.521-2556.413  0.00  0.00    -0.648 OA
ATOM    138  OE2 GLU d   1    2457.696 759.193-2557.219  0.00  0.00    -0.648 OA
ENDBRANCH 135 136
ENDBRANCH 134 135
ENDBRANCH 131 134
ENDBRANCH 128 131
ENDBRANCH 126 127
BRANCH 126 139
ATOM    139  CB  ASN d   2    2461.802 753.062-2557.964  0.00  0.00     0.137 C 
BRANCH 139 140
ATOM    140  CG  ASN d   2    2461.339 753.285-2556.521  0.00  0.00     0.217 C 
ATOM    141  ND2 ASN d   2    2461.933 754.200-2555.802  0.00  0.00    -0.370 N 
ATOM    142 21HD ASN d   2    2461.452 754.374-2554.916  0.00  0.00     0.159 HD
ATOM    143 22HD ASN d   2    2462.635 754.772-2556.271  0.00  0.00     0.159 HD
ATOM    144  OD1 ASN d   2    2460.417 752.652-2556.027  0.00  0.00    -0.274 OA
ENDBRANCH 139 140
ENDBRANCH 126 139
ENDBRANCH 121 126
ENDBRANCH 116 119
ENDBRANCH 114 115
BRANCH 114 145
ATOM    145  CB  GLU d   4    2458.322 755.199-2564.323  0.00  0.00     0.045 C 
BRANCH 145 146
ATOM    146  CG  GLU d   4    2457.775 756.203-2565.388  0.00  0.00     0.116 C 
BRANCH 146 147
ATOM    147  CD  GLU d   4    2456.348 756.700-2565.245  0.00  0.00     0.172 C 
ATOM    148  OE1 GLU d   4    2455.622 756.301-2564.315  0.00  0.00    -0.648 OA
ATOM    149  OE2 GLU d   4    2455.959 757.529-2566.094  0.00  0.00    -0.648 OA
ENDBRANCH 146 147
ENDBRANCH 145 146
ENDBRANCH 114 145
ENDBRANCH 111 114
ENDBRANCH 109 110
BRANCH 109 150
ATOM    150  CB  SER d   5    2461.918 758.246-2561.778  0.00  0.00     0.199 C 
BRANCH 150 151
ATOM    151  OG  SER d   5    2462.649 757.367-2560.917  0.00  0.00    -0.398 OA
ATOM    152  HG  SER d   5    2462.160 756.542-2560.866  0.00  0.00     0.209 HD
ENDBRANCH 150 151
ENDBRANCH 109 150
ENDBRANCH 106 109
ENDBRANCH 104 105
BRANCH 104 153
ATOM    153  CB  ILE d   6    2465.682 754.693-2563.425  0.00  0.00     0.013 C 
ATOM    154  CG2 ILE d   6    2467.124 754.391-2563.940  0.00  0.00     0.012 C 
BRANCH 153 155
ATOM    155  CG1 ILE d   6    2465.701 754.631-2561.865  0.00  0.00     0.002 C 
ATOM    156  CD1 ILE d   6    2465.971 753.241-2561.249  0.00  0.00     0.005 C 
ENDBRANCH 153 155
ENDBRANCH 104 153
ENDBRANCH 101 104
ENDBRANCH  99 100
BRANCH  99 157
ATOM    157  CB  LEU d   7    2462.822 754.432-2568.046  0.00  0.00     0.038 C 
BRANCH 157 158
ATOM    158  CG  LEU d   7    2462.749 752.953-2567.579  0.00  0.00    -0.020 C 
ATOM    159  CD1 LEU d   7    2461.559 752.248-2568.245  0.00  0.00     0.009 C 
ATOM    160  CD2 LEU d   7    2464.042 752.173-2567.871  0.00  0.00     0.009 C 
ENDBRANCH 157 158
ENDBRANCH  99 157
ENDBRANCH  96  99
ENDBRANCH  94  95
BRANCH  94 161
ATOM    161  CB  ASP d   8    2461.969 759.718-2567.446  0.00  0.00     0.147 C 
BRANCH 161 162
ATOM    162  CG  ASP d   8    2461.751 761.139-2567.987  0.00  0.00     0.175 C 
ATOM    163  OD1 ASP d   8    2461.815 761.337-2569.218  0.00  0.00    -0.648 OA
ATOM    164  OD2 ASP d   8    2461.559 762.065-2567.172  0.00  0.00    -0.648 OA
ENDBRANCH 161 162
ENDBRANCH  94 161
ENDBRANCH  91  94
ENDBRANCH  89  90
BRANCH  89 165
ATOM    165  CB  GLU d   9    2467.010 759.957-2565.575  0.00  0.00     0.045 C 
BRANCH 165 166
ATOM    166  CG  GLU d   9    2468.393 760.649-2565.346  0.00  0.00     0.116 C 
BRANCH 166 167
ATOM    167  CD  GLU d   9    2469.095 760.436-2564.018  0.00  0.00     0.172 C 
ATOM    168  OE1 GLU d   9    2468.573 759.746-2563.121  0.00  0.00    -0.648 OA
ATOM    169  OE2 GLU d   9    2470.215 760.974-2563.886  0.00  0.00    -0.648 OA
ENDBRANCH 166 167
ENDBRANCH 165 166
ENDBRANCH  89 165
ENDBRANCH   1  89
TORSDOF 68
