REMARK WARNING: 32 MAX_TORS EXCEEDED!!!
REMARK  64 active torsions:
REMARK  status: ('A' for Active; 'I' for Inactive)
REMARK    1  A    between atoms: CA_2  and  C_3 
REMARK       I    between atoms: C_3  and  N_8 
REMARK    2  A    between atoms: N_8  and  CA_9 
REMARK    3  A    between atoms: CA_9  and  C_10 
REMARK    4  A    between atoms: CA_9  and  CB_12 
REMARK       I    between atoms: C_10  and  N_19 
REMARK    5  A    between atoms: CB_12  and  CG_13 
REMARK       I    between atoms: CG_13  and  ND2_14 
REMARK    6  A    between atoms: CA_20  and  C_21 
REMARK       I    between atoms: C_21  and  N_26 
REMARK    7  A    between atoms: N_26  and  CA_27 
REMARK    8  A    between atoms: CA_27  and  C_28 
REMARK    9  A    between atoms: CA_27  and  CB_30 
REMARK       I    between atoms: C_28  and  N_36 
REMARK   10  A    between atoms: CB_30  and  CG_31 
REMARK   11  A    between atoms: CG_31  and  CD_32 
REMARK   12  A    between atoms: N_36  and  CA_37 
REMARK   13  A    between atoms: CA_37  and  C_38 
REMARK   14  A    between atoms: CA_37  and  CB_40 
REMARK       I    between atoms: C_38  and  N_44 
REMARK   15  A    between atoms: CB_40  and  OG_41 
REMARK   16  A    between atoms: N_44  and  CA_45 
REMARK   17  A    between atoms: CA_45  and  C_46 
REMARK   18  A    between atoms: CA_45  and  CB_48 
REMARK       I    between atoms: C_46  and  N_53 
REMARK   19  A    between atoms: CB_48  and  CG1_49 
REMARK   20  A    between atoms: N_53  and  CA_54 
REMARK   21  A    between atoms: CA_54  and  C_55 
REMARK   22  A    between atoms: CA_54  and  CB_57 
REMARK       I    between atoms: C_55  and  N_62 
REMARK   23  A    between atoms: CB_57  and  CG_58 
REMARK   24  A    between atoms: N_62  and  CA_63 
REMARK   25  A    between atoms: CA_63  and  C_64 
REMARK   26  A    between atoms: CA_63  and  CB_66 
REMARK       I    between atoms: C_64  and  N_71 
REMARK   27  A    between atoms: CB_66  and  CG_67 
REMARK   28  A    between atoms: N_71  and  CA_72 
REMARK   29  A    between atoms: CA_72  and  C_73 
REMARK   30  A    between atoms: CA_72  and  CB_75 
REMARK       I    between atoms: C_73  and  N_81 
REMARK   31  A    between atoms: CB_75  and  CG_76 
REMARK   32  A    between atoms: CG_76  and  CD_77 
REMARK   33  A    between atoms: N_81  and  CA_82 
REMARK   34  A    between atoms: CA_82  and  C_83 
REMARK   35  A    between atoms: CA_82  and  CB_85 
REMARK       I    between atoms: C_83  and  N_93 
REMARK   36  A    between atoms: CB_85  and  CG_86 
REMARK   37  A    between atoms: N_93  and  CA_94 
REMARK   38  A    between atoms: CA_94  and  C_95 
REMARK   39  A    between atoms: CA_94  and  CB_97 
REMARK       I    between atoms: C_95  and  N_101 
REMARK   40  A    between atoms: N_101  and  CA_102 
REMARK   41  A    between atoms: CA_102  and  C_103 
REMARK   42  A    between atoms: CA_102  and  CB_105 
REMARK       I    between atoms: C_103  and  N_113 
REMARK   43  A    between atoms: CB_105  and  CG_106 
REMARK   44  A    between atoms: CG_106  and  CD_107 
REMARK       I    between atoms: CD_107  and  NE2_108 
REMARK   45  A    between atoms: N_113  and  CA_114 
REMARK   46  A    between atoms: CA_114  and  C_115 
REMARK   47  A    between atoms: CA_114  and  CB_117 
REMARK       I    between atoms: C_115  and  N_130 
REMARK   48  A    between atoms: CB_117  and  CG_118 
REMARK   49  A    between atoms: CG_118  and  CD_119 
REMARK   50  A    between atoms: CD_119  and  NE_120 
REMARK       I    between atoms: NE_120  and  CZ_121 
REMARK       I    between atoms: CZ_121  and  NH1_122 
REMARK       I    between atoms: CZ_121  and  NH2_123 
REMARK   51  A    between atoms: N_130  and  CA_131 
REMARK   52  A    between atoms: CA_131  and  C_132 
REMARK   53  A    between atoms: CA_131  and  CB_134 
REMARK       I    between atoms: C_132  and  N_138 
REMARK   54  A    between atoms: N_138  and  CA_139 
REMARK   55  A    between atoms: CA_139  and  C_140 
REMARK   56  A    between atoms: CA_139  and  CB_142 
REMARK       I    between atoms: C_140  and  N_147 
REMARK   57  A    between atoms: CB_142  and  CG_143 
REMARK   58  A    between atoms: CG_143  and  SD_144 
REMARK   59  A    between atoms: N_147  and  CA_148 
REMARK   60  A    between atoms: CA_148  and  C_149 
REMARK   61  A    between atoms: CA_148  and  CB_151 
REMARK   62  A    between atoms: CB_151  and  CG_152 
REMARK   63  A    between atoms: CG_152  and  CD_153 
REMARK   64  A    between atoms: CD_153  and  NE_154 
REMARK       I    between atoms: NE_154  and  CZ_155 
REMARK       I    between atoms: CZ_155  and  NH1_156 
ROOT
ATOM      1  C   GLU d   9      18.825  13.061  -5.744  0.00  0.00     0.241 C 
ATOM      2  O   GLU d   9      19.767  13.858  -5.864  0.00  0.00    -0.271 OA
ATOM      3  N   HIS d  10      18.463  12.695  -4.561  0.00  0.00    -0.346 N 
ATOM      4  H   HIS d  10      17.698  12.047  -4.438  0.00  0.00     0.163 HD
ENDROOT
BRANCH   3   5
ATOM      5  CA  HIS d  10      19.174  13.230  -3.404  0.00  0.00     0.182 C 
BRANCH   5   6
ATOM      6  C   HIS d  10      20.651  12.930  -3.490  0.00  0.00     0.241 C 
ATOM      7  O   HIS d  10      21.512  13.798  -3.278  0.00  0.00    -0.271 OA
ATOM      8  N   VAL d  11      21.030  11.735  -3.792  0.00  0.00    -0.346 N 
ATOM      9  H   VAL d  11      20.348  11.010  -3.969  0.00  0.00     0.163 HD
BRANCH   8  10
ATOM     10  CA  VAL d  11      22.458  11.444  -3.875  0.00  0.00     0.180 C 
BRANCH  10  11
ATOM     11  C   VAL d  11      23.138  12.353  -4.870  0.00  0.00     0.241 C 
ATOM     12  O   VAL d  11      24.196  12.940  -4.608  0.00  0.00    -0.271 OA
ATOM     13  N   GLN d  12      22.600  12.523  -6.030  0.00  0.00    -0.346 N 
ATOM     14  H   GLN d  12      21.737  12.055  -6.268  0.00  0.00     0.163 HD
BRANCH  13  15
ATOM     15  CA  GLN d  12      23.257  13.401  -6.993  0.00  0.00     0.177 C 
BRANCH  15  16
ATOM     16  C   GLN d  12      23.445  14.787  -6.423  0.00  0.00     0.241 C 
ATOM     17  O   GLN d  12      24.515  15.386  -6.508  0.00  0.00    -0.271 OA
ATOM     18  N   ARG d  13      22.452  15.360  -5.830  0.00  0.00    -0.346 N 
ATOM     19  H   ARG d  13      21.563  14.889  -5.748  0.00  0.00     0.163 HD
BRANCH  18  20
ATOM     20  CA  ARG d  13      22.635  16.700  -5.279  0.00  0.00     0.176 C 
BRANCH  20  21
ATOM     21  C   ARG d  13      23.776  16.726  -4.289  0.00  0.00     0.241 C 
ATOM     22  O   ARG d  13      24.643  17.596  -4.317  0.00  0.00    -0.271 OA
ATOM     23  N   VAL d  14      23.842  15.806  -3.387  0.00  0.00    -0.346 N 
ATOM     24  H   VAL d  14      23.141  15.080  -3.343  0.00  0.00     0.163 HD
BRANCH  23  25
ATOM     25  CA  VAL d  14      24.944  15.831  -2.430  0.00  0.00     0.180 C 
BRANCH  25  26
ATOM     26  C   VAL d  14      26.277  15.805  -3.139  0.00  0.00     0.241 C 
ATOM     27  O   VAL d  14      27.195  16.578  -2.840  0.00  0.00    -0.271 OA
ATOM     28  N   MET d  15      26.463  14.950  -4.087  0.00  0.00    -0.346 N 
ATOM     29  H   MET d  15      25.729  14.308  -4.350  0.00  0.00     0.163 HD
BRANCH  28  30
ATOM     30  CA  MET d  15      27.751  14.923  -4.774  0.00  0.00     0.177 C 
BRANCH  30  31
ATOM     31  C   MET d  15      28.075  16.271  -5.371  0.00  0.00     0.241 C 
ATOM     32  O   MET d  15      29.188  16.801  -5.231  0.00  0.00    -0.271 OA
ATOM     33  N   ARG d  16      27.168  16.890  -6.048  0.00  0.00    -0.347 N 
ATOM     34  H   ARG d  16      26.254  16.479  -6.177  0.00  0.00     0.163 HD
BRANCH  33  35
ATOM     35  CA  ARG d  16      27.482  18.193  -6.626  0.00  0.00     0.162 C 
BRANCH  35  36
ATOM     36  C   ARG d  16      27.930  19.163  -5.558  0.00  0.00     0.219 C 
ATOM     37  O   ARG d  16      28.024  18.835  -4.378  0.00  0.00    -0.287 OA
ENDBRANCH  35  36
BRANCH  35  38
ATOM     38  CB  ARG d  16      26.230  18.722  -7.382  0.00  0.00     0.035 C 
BRANCH  38  39
ATOM     39  CG  ARG d  16      26.468  19.964  -8.285  0.00  0.00     0.023 C 
BRANCH  39  40
ATOM     40  CD  ARG d  16      25.174  20.441  -8.966  0.00  0.00     0.138 C 
BRANCH  40  41
ATOM     41  NE  ARG d  16      25.468  21.619  -9.833  0.00  0.00    -0.227 N 
ATOM     42  CZ  ARG d  16      24.573  22.281 -10.559  0.00  0.00     0.665 C 
ATOM     43  NH1 ARG d  16      23.306  21.978 -10.595  0.00  0.00    -0.235 N 
ATOM     44  NH2 ARG d  16      24.979  23.284 -11.272  0.00  0.00    -0.235 N 
ATOM     45 11HH ARG d  16      23.051  21.179 -10.010  0.00  0.00     0.174 HD
ATOM     46 12HH ARG d  16      22.681  22.536 -11.179  0.00  0.00     0.174 HD
ATOM     47 21HH ARG d  16      25.975  23.508 -11.231  0.00  0.00     0.174 HD
ATOM     48 22HH ARG d  16      24.276  23.779 -11.824  0.00  0.00     0.174 HD
ATOM     49  HE  ARG d  16      26.421  21.988  -9.916  0.00  0.00     0.177 HD
ENDBRANCH  40  41
ENDBRANCH  39  40
ENDBRANCH  38  39
ENDBRANCH  35  38
ENDBRANCH  33  35
ENDBRANCH  30  31
BRANCH  30  50
ATOM     50  CB  MET d  15      27.743  13.819  -5.867  0.00  0.00     0.045 C 
BRANCH  50  51
ATOM     51  CG  MET d  15      27.560  12.372  -5.363  0.00  0.00     0.076 C 
BRANCH  51  52
ATOM     52  SD  MET d  15      27.864  11.214  -6.707  0.00  0.00    -0.173 SA
ATOM     53  CE  MET d  15      27.205   9.730  -5.935  0.00  0.00     0.089 C 
ENDBRANCH  51  52
ENDBRANCH  50  51
ENDBRANCH  30  50
ENDBRANCH  28  30
ENDBRANCH  25  26
BRANCH  25  54
ATOM     54  CB  VAL d  14      24.815  14.613  -1.431  0.00  0.00     0.009 C 
ATOM     55  CG1 VAL d  14      26.009  14.385  -0.464  0.00  0.00     0.012 C 
ATOM     56  CG2 VAL d  14      23.562  14.677  -0.525  0.00  0.00     0.012 C 
ENDBRANCH  25  54
ENDBRANCH  23  25
ENDBRANCH  20  21
BRANCH  20  57
ATOM     57  CB  ARG d  13      21.302  17.157  -4.621  0.00  0.00     0.036 C 
BRANCH  57  58
ATOM     58  CG  ARG d  13      21.231  18.659  -4.228  0.00  0.00     0.023 C 
BRANCH  58  59
ATOM     59  CD  ARG d  13      19.897  19.017  -3.552  0.00  0.00     0.138 C 
BRANCH  59  60
ATOM     60  NE  ARG d  13      19.878  20.472  -3.218  0.00  0.00    -0.227 N 
ATOM     61  CZ  ARG d  13      18.877  21.110  -2.620  0.00  0.00     0.665 C 
ATOM     62  NH1 ARG d  13      17.773  20.528  -2.243  0.00  0.00    -0.235 N 
ATOM     63  NH2 ARG d  13      19.001  22.381  -2.400  0.00  0.00    -0.235 N 
ATOM     64 11HH ARG d  13      17.739  19.527  -2.444  0.00  0.00     0.174 HD
ATOM     65 12HH ARG d  13      17.049  21.089  -1.790  0.00  0.00     0.174 HD
ATOM     66 21HH ARG d  13      19.873  22.819  -2.701  0.00  0.00     0.174 HD
ATOM     67 22HH ARG d  13      18.221  22.854  -1.941  0.00  0.00     0.174 HD
ATOM     68  HE  ARG d  13      20.674  21.076  -3.447  0.00  0.00     0.177 HD
ENDBRANCH  59  60
ENDBRANCH  58  59
ENDBRANCH  57  58
ENDBRANCH  20  57
ENDBRANCH  18  20
ENDBRANCH  15  16
BRANCH  15  69
ATOM     69  CB  GLN d  12      22.408  13.444  -8.284  0.00  0.00     0.044 C 
BRANCH  69  70
ATOM     70  CG  GLN d  12      22.979  14.306  -9.458  0.00  0.00     0.105 C 
BRANCH  70  71
ATOM     71  CD  GLN d  12      22.161  14.445 -10.748  0.00  0.00     0.215 C 
ATOM     72  NE2 GLN d  12      21.010  13.834 -10.863  0.00  0.00    -0.370 N 
ATOM     73 21HE GLN d  12      20.500  14.030 -11.726  0.00  0.00     0.159 HD
ATOM     74 22HE GLN d  12      20.706  13.325 -10.030  0.00  0.00     0.159 HD
ATOM     75  OE1 GLN d  12      22.555  15.140 -11.672  0.00  0.00    -0.274 OA
ENDBRANCH  70  71
ENDBRANCH  69  70
ENDBRANCH  15  69
ENDBRANCH  13  15
ENDBRANCH  10  11
BRANCH  10  76
ATOM     76  CB  VAL d  11      22.676   9.927  -4.259  0.00  0.00     0.009 C 
ATOM     77  CG1 VAL d  11      24.135   9.496  -4.570  0.00  0.00     0.012 C 
ATOM     78  CG2 VAL d  11      22.176   8.931  -3.185  0.00  0.00     0.012 C 
ENDBRANCH  10  76
ENDBRANCH   8  10
ENDBRANCH   5   6
BRANCH   5  79
ATOM     79  CB  HIS d  10      18.560  12.554  -2.168  0.00  0.00     0.095 C 
BRANCH  79  80
ATOM     80  CG  HIS d  10      17.943  13.544  -1.223  0.00  0.00     0.053 A 
ATOM     81  CD2 HIS d  10      16.611  13.929  -1.305  0.00  0.00     0.116 A 
ATOM     82  NE2 HIS d  10      16.372  14.838  -0.307  0.00  0.00    -0.359 N 
ATOM     83  CE1 HIS d  10      17.584  14.934   0.304  0.00  0.00     0.207 A 
ATOM     84  2HE HIS d  10      15.491  15.324  -0.084  0.00  0.00     0.166 HD
ATOM     85  ND1 HIS d  10      18.596  14.187  -0.175  0.00  0.00    -0.247 NA
ENDBRANCH  79  80
ENDBRANCH   5  79
ENDBRANCH   3   5
BRANCH   1  86
ATOM     86  CA  GLU d   9      18.089  12.507  -6.940  0.00  0.00     0.177 C 
BRANCH  86  87
ATOM     87  N   GLU d   9      17.924  11.060  -6.828  0.00  0.00    -0.346 N 
ATOM     88  C   ASP d   8      18.972  10.320  -6.688  0.00  0.00     0.241 C 
ATOM     89  O   ASP d   8      20.089  10.860  -6.653  0.00  0.00    -0.271 OA
ATOM     90  H   GLU d   9      17.004  10.645  -6.859  0.00  0.00     0.163 HD
BRANCH  88  91
ATOM     91  CA  ASP d   8      18.801   8.825  -6.573  0.00  0.00     0.186 C 
BRANCH  91  92
ATOM     92  N   ASP d   8      17.749   8.490  -5.618  0.00  0.00    -0.346 N 
ATOM     93  C   LEU d   7      17.841   8.925  -4.407  0.00  0.00     0.241 C 
ATOM     94  O   LEU d   7      18.821   9.616  -4.090  0.00  0.00    -0.271 OA
ATOM     95  H   ASP d   8      16.961   7.926  -5.901  0.00  0.00     0.163 HD
BRANCH  93  96
ATOM     96  CA  LEU d   7      16.753   8.578  -3.420  0.00  0.00     0.177 C 
BRANCH  96  97
ATOM     97  N   LEU d   7      15.431   8.806  -3.998  0.00  0.00    -0.346 N 
ATOM     98  C   ILE d   6      15.138   9.980  -4.444  0.00  0.00     0.241 C 
ATOM     99  O   ILE d   6      15.987  10.881  -4.369  0.00  0.00    -0.271 OA
ATOM    100  H   LEU d   7      14.757   8.055  -4.048  0.00  0.00     0.163 HD
BRANCH  98 101
ATOM    101  CA  ILE d   6      13.773  10.216  -5.042  0.00  0.00     0.180 C 
BRANCH 101 102
ATOM    102  N   ILE d   6      13.424   9.156  -5.984  0.00  0.00    -0.346 N 
ATOM    103  C   SER d   5      14.207   8.924  -6.982  0.00  0.00     0.243 C 
ATOM    104  O   SER d   5      15.226   9.603  -7.112  0.00  0.00    -0.271 OA
ATOM    105  H   ILE d   6      12.582   8.613  -5.856  0.00  0.00     0.163 HD
BRANCH 103 106
ATOM    106  CA  SER d   5      13.847   7.828  -7.958  0.00  0.00     0.200 C 
BRANCH 106 107
ATOM    107  N   SER d   5      13.461   6.608  -7.253  0.00  0.00    -0.344 N 
ATOM    108  C   GLU d   4      14.292   6.078  -6.422  0.00  0.00     0.241 C 
ATOM    109  O   GLU d   4      15.393   6.619  -6.245  0.00  0.00    -0.271 OA
ATOM    110  H   SER d   5      12.558   6.187  -7.415  0.00  0.00     0.163 HD
BRANCH 108 111
ATOM    111  CA  GLU d   4      13.894   4.817  -5.693  0.00  0.00     0.177 C 
BRANCH 111 112
ATOM    112  N   GLU d   4      12.548   4.935  -5.141  0.00  0.00    -0.346 N 
ATOM    113  C   PRO d   3      12.287   5.904  -4.330  0.00  0.00     0.241 C 
ATOM    114  O   PRO d   3      13.170   6.710  -4.036  0.00  0.00    -0.271 OA
ATOM    115  H   GLU d   4      11.831   4.268  -5.389  0.00  0.00     0.163 HD
BRANCH 113 116
ATOM    116  CA  PRO d   3      10.874   6.045  -3.738  0.00  0.00     0.179 C 
ATOM    117  N   PRO d   3       9.848   5.913  -4.761  0.00  0.00    -0.337 N 
ATOM    118  C   ASN d   2       9.650   6.812  -5.665  0.00  0.00     0.243 C 
ATOM    119  CD  PRO d   3       9.068   4.697  -4.689  0.00  0.00     0.127 C 
ATOM    120  O   ASN d   2      10.352   7.822  -5.665  0.00  0.00    -0.271 OA
ATOM    121  CG  PRO d   3       9.861   3.853  -3.689  0.00  0.00     0.022 C 
ATOM    122  CB  PRO d   3      10.510   4.904  -2.776  0.00  0.00     0.037 C 
BRANCH 118 123
ATOM    123  CA  ASN d   2       8.562   6.593  -6.690  0.00  0.00     0.185 C 
BRANCH 123 124
ATOM    124  N   ASN d   2       8.633   5.245  -7.247  0.00  0.00    -0.346 N 
ATOM    125  C   PRO d   1       9.727   4.859  -7.810  0.00  0.00     0.242 C 
ATOM    126  O   PRO d   1      10.689   5.626  -7.868  0.00  0.00    -0.271 OA
ATOM    127  H   ASN d   2       7.838   4.625  -7.192  0.00  0.00     0.163 HD
BRANCH 125 128
ATOM    128  CA  PRO d   1       9.822   3.443  -8.403  0.00  0.00     0.194 C 
ATOM    129  N   PRO d   1       9.312   2.440  -7.480  0.00  0.00    -0.315 NA
ATOM    130  CD  PRO d   1       8.059   1.832  -7.871  0.00  0.00     0.143 C 
ATOM    131  CG  PRO d   1       7.595   2.737  -9.015  0.00  0.00     0.024 C 
ATOM    132  CB  PRO d   1       8.912   3.241  -9.624  0.00  0.00     0.038 C 
ENDBRANCH 125 128
ENDBRANCH 123 124
BRANCH 123 133
ATOM    133  CB  ASN d   2       7.157   6.820  -6.059  0.00  0.00     0.137 C 
BRANCH 133 134
ATOM    134  CG  ASN d   2       5.946   6.627  -6.977  0.00  0.00     0.217 C 
ATOM    135  ND2 ASN d   2       5.635   7.576  -7.819  0.00  0.00    -0.370 N 
ATOM    136 21HD ASN d   2       4.912   7.287  -8.483  0.00  0.00     0.159 HD
ATOM    137 22HD ASN d   2       6.268   8.374  -7.869  0.00  0.00     0.159 HD
ATOM    138  OD1 ASN d   2       5.273   5.607  -6.962  0.00  0.00    -0.274 OA
ENDBRANCH 133 134
ENDBRANCH 123 133
ENDBRANCH 118 123
ENDBRANCH 113 116
ENDBRANCH 111 112
BRANCH 111 139
ATOM    139  CB  GLU d   4      13.964   3.592  -6.649  0.00  0.00     0.045 C 
BRANCH 139 140
ATOM    140  CG  GLU d   4      15.364   3.306  -7.283  0.00  0.00     0.116 C 
BRANCH 140 141
ATOM    141  CD  GLU d   4      15.487   2.162  -8.273  0.00  0.00     0.172 C 
ATOM    142  OE1 GLU d   4      14.503   1.453  -8.558  0.00  0.00    -0.648 OA
ATOM    143  OE2 GLU d   4      16.612   1.988  -8.786  0.00  0.00    -0.648 OA
ENDBRANCH 140 141
ENDBRANCH 139 140
ENDBRANCH 111 139
ENDBRANCH 108 111
ENDBRANCH 106 107
BRANCH 106 144
ATOM    144  CB  SER d   5      12.730   8.278  -8.933  0.00  0.00     0.199 C 
BRANCH 144 145
ATOM    145  OG  SER d   5      11.561   8.755  -8.259  0.00  0.00    -0.398 OA
ATOM    146  HG  SER d   5      11.201   8.022  -7.755  0.00  0.00     0.209 HD
ENDBRANCH 144 145
ENDBRANCH 106 144
ENDBRANCH 103 106
ENDBRANCH 101 102
BRANCH 101 147
ATOM    147  CB  ILE d   6      12.663  10.384  -3.927  0.00  0.00     0.013 C 
ATOM    148  CG2 ILE d   6      12.957  11.567  -2.952  0.00  0.00     0.012 C 
BRANCH 147 149
ATOM    149  CG1 ILE d   6      11.209  10.556  -4.474  0.00  0.00     0.002 C 
ATOM    150  CD1 ILE d   6      10.077  10.400  -3.438  0.00  0.00     0.005 C 
ENDBRANCH 147 149
ENDBRANCH 101 147
ENDBRANCH  98 101
ENDBRANCH  96  97
BRANCH  96 151
ATOM    151  CB  LEU d   7      16.891   7.107  -2.935  0.00  0.00     0.038 C 
BRANCH 151 152
ATOM    152  CG  LEU d   7      15.871   6.584  -1.888  0.00  0.00    -0.020 C 
ATOM    153  CD1 LEU d   7      16.240   5.157  -1.457  0.00  0.00     0.009 C 
ATOM    154  CD2 LEU d   7      15.774   7.490  -0.649  0.00  0.00     0.009 C 
ENDBRANCH 151 152
ENDBRANCH  96 151
ENDBRANCH  93  96
ENDBRANCH  91  92
BRANCH  91 155
ATOM    155  CB  ASP d   8      18.502   8.191  -7.960  0.00  0.00     0.147 C 
BRANCH 155 156
ATOM    156  CG  ASP d   8      19.577   8.414  -9.034  0.00  0.00     0.175 C 
ATOM    157  OD1 ASP d   8      20.781   8.403  -8.701  0.00  0.00    -0.648 OA
ATOM    158  OD2 ASP d   8      19.212   8.644 -10.206  0.00  0.00    -0.648 OA
ENDBRANCH 155 156
ENDBRANCH  91 155
ENDBRANCH  88  91
ENDBRANCH  86  87
BRANCH  86 159
ATOM    159  CB  GLU d   9      16.696  13.185  -7.082  0.00  0.00     0.045 C 
BRANCH 159 160
ATOM    160  CG  GLU d   9      16.713  14.737  -7.263  0.00  0.00     0.116 C 
BRANCH 160 161
ATOM    161  CD  GLU d   9      15.386  15.468  -7.346  0.00  0.00     0.172 C 
ATOM    162  OE1 GLU d   9      14.307  14.845  -7.296  0.00  0.00    -0.648 OA
ATOM    163  OE2 GLU d   9      15.439  16.711  -7.452  0.00  0.00    -0.648 OA
ENDBRANCH 160 161
ENDBRANCH 159 160
ENDBRANCH  86 159
ENDBRANCH   1  86
TORSDOF 64
