REMARK WARNING: 32 MAX_TORS EXCEEDED!!!
REMARK  67 active torsions:
REMARK  status: ('A' for Active; 'I' for Inactive)
REMARK    1  A    between atoms: N_1  and  CA_2 
REMARK    2  A    between atoms: CA_2  and  C_3 
REMARK    3  A    between atoms: CA_2  and  CB_5 
REMARK       I    between atoms: C_3  and  N_11 
REMARK    4  A    between atoms: CB_5  and  CG_6 
REMARK    5  A    between atoms: CG_6  and  CD_7 
REMARK    6  A    between atoms: N_11  and  CA_12 
REMARK    7  A    between atoms: CA_12  and  C_13 
REMARK    8  A    between atoms: CA_12  and  CB_15 
REMARK       I    between atoms: C_13  and  N_22 
REMARK    9  A    between atoms: CB_15  and  CG_16 
REMARK       I    between atoms: CG_16  and  ND2_17 
REMARK   10  A    between atoms: CA_23  and  C_24 
REMARK       I    between atoms: C_24  and  N_29 
REMARK   11  A    between atoms: N_29  and  CA_30 
REMARK   12  A    between atoms: CA_30  and  C_31 
REMARK   13  A    between atoms: CA_30  and  CB_33 
REMARK       I    between atoms: C_31  and  N_39 
REMARK   14  A    between atoms: CB_33  and  CG_34 
REMARK   15  A    between atoms: CG_34  and  CD_35 
REMARK   16  A    between atoms: N_39  and  CA_40 
REMARK   17  A    between atoms: CA_40  and  C_41 
REMARK   18  A    between atoms: CA_40  and  CB_43 
REMARK       I    between atoms: C_41  and  N_47 
REMARK   19  A    between atoms: CB_43  and  OG_44 
REMARK   20  A    between atoms: N_47  and  CA_48 
REMARK   21  A    between atoms: CA_48  and  C_49 
REMARK   22  A    between atoms: CA_48  and  CB_51 
REMARK       I    between atoms: C_49  and  N_56 
REMARK   23  A    between atoms: CB_51  and  CG1_52 
REMARK   24  A    between atoms: N_56  and  CA_57 
REMARK   25  A    between atoms: CA_57  and  C_58 
REMARK   26  A    between atoms: CA_57  and  CB_60 
REMARK       I    between atoms: C_58  and  N_65 
REMARK   27  A    between atoms: CB_60  and  CG_61 
REMARK   28  A    between atoms: N_65  and  CA_66 
REMARK   29  A    between atoms: CA_66  and  C_67 
REMARK   30  A    between atoms: CA_66  and  CB_69 
REMARK       I    between atoms: C_67  and  N_74 
REMARK   31  A    between atoms: CB_69  and  CG_70 
REMARK   32  A    between atoms: N_74  and  CA_75 
REMARK   33  A    between atoms: CA_75  and  C_76 
REMARK   34  A    between atoms: CA_75  and  CB_78 
REMARK       I    between atoms: C_76  and  N_84 
REMARK   35  A    between atoms: CB_78  and  CG_79 
REMARK   36  A    between atoms: CG_79  and  CD_80 
REMARK   37  A    between atoms: N_84  and  CA_85 
REMARK   38  A    between atoms: CA_85  and  C_86 
REMARK   39  A    between atoms: CA_85  and  CB_88 
REMARK       I    between atoms: C_86  and  N_96 
REMARK   40  A    between atoms: CB_88  and  CG_89 
REMARK   41  A    between atoms: N_96  and  CA_97 
REMARK   42  A    between atoms: CA_97  and  C_98 
REMARK   43  A    between atoms: CA_97  and  CB_100 
REMARK       I    between atoms: C_98  and  N_104 
REMARK   44  A    between atoms: N_104  and  CA_105 
REMARK   45  A    between atoms: CA_105  and  C_106 
REMARK   46  A    between atoms: CA_105  and  CB_108 
REMARK       I    between atoms: C_106  and  N_116 
REMARK   47  A    between atoms: CB_108  and  CG_109 
REMARK   48  A    between atoms: CG_109  and  CD_110 
REMARK       I    between atoms: CD_110  and  NE2_111 
REMARK   49  A    between atoms: N_116  and  CA_117 
REMARK   50  A    between atoms: CA_117  and  C_118 
REMARK   51  A    between atoms: CA_117  and  CB_120 
REMARK       I    between atoms: C_118  and  N_133 
REMARK   52  A    between atoms: CB_120  and  CG_121 
REMARK   53  A    between atoms: CG_121  and  CD_122 
REMARK   54  A    between atoms: CD_122  and  NE_123 
REMARK       I    between atoms: NE_123  and  CZ_124 
REMARK       I    between atoms: CZ_124  and  NH1_125 
REMARK   55  A    between atoms: N_133  and  CA_134 
REMARK   56  A    between atoms: CA_134  and  C_135 
REMARK   57  A    between atoms: CA_134  and  CB_137 
REMARK       I    between atoms: C_135  and  N_141 
REMARK   58  A    between atoms: N_141  and  CA_142 
REMARK   59  A    between atoms: CA_142  and  C_143 
REMARK   60  A    between atoms: CA_142  and  CB_145 
REMARK       I    between atoms: C_143  and  N_150 
REMARK   61  A    between atoms: CB_145  and  CG_146 
REMARK   62  A    between atoms: CG_146  and  SD_147 
REMARK   63  A    between atoms: N_150  and  CA_151 
REMARK   64  A    between atoms: CA_151  and  C_152 
REMARK   65  A    between atoms: CA_151  and  CB_154 
REMARK   66  A    between atoms: CB_154  and  CG_155 
REMARK   67  A    between atoms: CZ_160  and  OH_161 
ROOT
ATOM      1  C   GLU d   9    2572.020 791.897-2683.314  0.00  0.00     0.241 C 
ATOM      2  O   GLU d   9    2572.683 792.651-2684.040  0.00  0.00    -0.271 OA
ATOM      3  N   HIS d  10    2572.115 790.622-2683.483  0.00  0.00    -0.346 N 
ATOM      4  H   HIS d  10    2571.585 789.987-2682.904  0.00  0.00     0.163 HD
ENDROOT
BRANCH   1   5
ATOM      5  CA  GLU d   9    2571.102 792.426-2682.238  0.00  0.00     0.177 C 
BRANCH   5   6
ATOM      6  N   GLU d   9    2569.799 791.769-2682.293  0.00  0.00    -0.346 N 
ATOM      7  C   ASP d   8    2569.119 791.818-2683.388  0.00  0.00     0.241 C 
ATOM      8  O   ASP d   8    2569.592 792.423-2684.363  0.00  0.00    -0.271 OA
ATOM      9  H   GLU d   9    2569.435 791.283-2681.485  0.00  0.00     0.163 HD
BRANCH   7  10
ATOM     10  CA  ASP d   8    2567.772 791.139-2683.445  0.00  0.00     0.186 C 
BRANCH  10  11
ATOM     11  N   ASP d   8    2567.842 789.790-2682.891  0.00  0.00    -0.346 N 
ATOM     12  C   LEU d   7    2568.678 788.949-2683.396  0.00  0.00     0.241 C 
ATOM     13  O   LEU d   7    2569.399 789.311-2684.339  0.00  0.00    -0.271 OA
ATOM     14  H   ASP d   8    2567.244 789.520-2682.123  0.00  0.00     0.163 HD
BRANCH  12  15
ATOM     15  CA  LEU d   7    2568.750 787.554-2682.823  0.00  0.00     0.177 C 
BRANCH  15  16
ATOM     16  N   LEU d   7    2568.805 787.590-2681.365  0.00  0.00    -0.346 N 
ATOM     17  C   ILE d   6    2569.751 788.253-2680.792  0.00  0.00     0.241 C 
ATOM     18  O   ILE d   6    2570.586 788.840-2681.495  0.00  0.00    -0.271 OA
ATOM     19  H   LEU d   7    2568.113 787.103-2680.814  0.00  0.00     0.163 HD
BRANCH  17  20
ATOM     20  CA  ILE d   6    2569.809 788.291-2679.284  0.00  0.00     0.180 C 
BRANCH  20  21
ATOM     21  N   ILE d   6    2568.495 788.586-2678.718  0.00  0.00    -0.346 N 
ATOM     22  C   SER d   5    2567.891 789.669-2679.072  0.00  0.00     0.243 C 
ATOM     23  O   SER d   5    2568.439 790.423-2679.877  0.00  0.00    -0.271 OA
ATOM     24  H   ILE d   6    2568.066 787.952-2678.059  0.00  0.00     0.163 HD
BRANCH  22  25
ATOM     25  CA  SER d   5    2566.532 789.975-2678.487  0.00  0.00     0.200 C 
BRANCH  25  26
ATOM     26  N   SER d   5    2565.662 788.804-2678.546  0.00  0.00    -0.344 N 
ATOM     27  C   GLU d   4    2565.435 788.252-2679.689  0.00  0.00     0.241 C 
ATOM     28  O   GLU d   4    2565.962 788.731-2680.703  0.00  0.00    -0.271 OA
ATOM     29  H   SER d   5    2565.245 788.433-2677.704  0.00  0.00     0.163 HD
BRANCH  27  30
ATOM     30  CA  GLU d   4    2564.536 787.041-2679.750  0.00  0.00     0.177 C 
BRANCH  30  31
ATOM     31  N   GLU d   4    2564.895 786.070-2678.721  0.00  0.00    -0.346 N 
ATOM     32  C   PRO d   3    2566.100 785.610-2678.688  0.00  0.00     0.241 C 
ATOM     33  O   PRO d   3    2566.924 785.993-2679.519  0.00  0.00    -0.271 OA
ATOM     34  H   GLU d   4    2564.211 785.763-2678.044  0.00  0.00     0.163 HD
BRANCH  32  35
ATOM     35  CA  PRO d   3    2566.498 784.586-2677.611  0.00  0.00     0.179 C 
ATOM     36  N   PRO d   3    2566.046 784.995-2676.290  0.00  0.00    -0.337 N 
ATOM     37  C   ASN d   2    2566.567 785.990-2675.655  0.00  0.00     0.243 C 
ATOM     38  CD  PRO d   3    2564.967 784.203-2675.741  0.00  0.00     0.127 C 
ATOM     39  O   ASN d   2    2567.482 786.621-2676.183  0.00  0.00    -0.271 OA
ATOM     40  CG  PRO d   3    2564.510 783.384-2676.951  0.00  0.00     0.022 C 
ATOM     41  CB  PRO d   3    2565.793 783.232-2677.781  0.00  0.00     0.037 C 
BRANCH  37  42
ATOM     42  CA  ASN d   2    2566.036 786.346-2674.287  0.00  0.00     0.185 C 
BRANCH  42  43
ATOM     43  N   ASN d   2    2564.576 786.385-2674.287  0.00  0.00    -0.346 N 
ATOM     44  C   GLU d   1    2563.972 787.171-2675.112  0.00  0.00     0.242 C 
ATOM     45  O   GLU d   1    2564.648 787.870-2675.881  0.00  0.00    -0.271 OA
ATOM     46  H   ASN d   2    2564.048 785.805-2673.650  0.00  0.00     0.163 HD
BRANCH  44  47
ATOM     47  CA  GLU d   1    2562.463 787.211-2675.112  0.00  0.00     0.191 C 
BRANCH  47  48
ATOM     48  N   GLU d   1    2561.904 785.862-2675.112  0.00  0.00    -0.326 NA
ATOM     49  H   GLU d   1    2562.531 784.983-2675.112  0.00  0.00     0.180 HD
ENDBRANCH  47  48
BRANCH  47  50
ATOM     50  CB  GLU d   1    2561.940 787.996-2673.875  0.00  0.00     0.047 C 
BRANCH  50  51
ATOM     51  CG  GLU d   1    2562.415 789.481-2673.764  0.00  0.00     0.116 C 
BRANCH  51  52
ATOM     52  CD  GLU d   1    2561.991 790.285-2672.549  0.00  0.00     0.172 C 
ATOM     53  OE1 GLU d   1    2561.263 789.783-2671.671  0.00  0.00    -0.648 OA
ATOM     54  OE2 GLU d   1    2562.421 791.455-2672.477  0.00  0.00    -0.648 OA
ENDBRANCH  51  52
ENDBRANCH  50  51
ENDBRANCH  47  50
ENDBRANCH  44  47
ENDBRANCH  42  43
BRANCH  42  55
ATOM     55  CB  ASN d   2    2566.527 785.323-2673.222  0.00  0.00     0.137 C 
BRANCH  55  56
ATOM     56  CG  ASN d   2    2566.064 785.547-2671.779  0.00  0.00     0.217 C 
ATOM     57  ND2 ASN d   2    2566.658 786.462-2671.061  0.00  0.00    -0.370 N 
ATOM     58 21HD ASN d   2    2566.177 786.635-2670.174  0.00  0.00     0.159 HD
ATOM     59 22HD ASN d   2    2567.360 787.033-2671.530  0.00  0.00     0.159 HD
ATOM     60  OD1 ASN d   2    2565.143 784.913-2671.285  0.00  0.00    -0.274 OA
ENDBRANCH  55  56
ENDBRANCH  42  55
ENDBRANCH  37  42
ENDBRANCH  32  35
ENDBRANCH  30  31
BRANCH  30  61
ATOM     61  CB  GLU d   4    2563.048 787.460-2679.581  0.00  0.00     0.045 C 
BRANCH  61  62
ATOM     62  CG  GLU d   4    2562.500 788.464-2680.646  0.00  0.00     0.116 C 
BRANCH  62  63
ATOM     63  CD  GLU d   4    2561.074 788.961-2680.503  0.00  0.00     0.172 C 
ATOM     64  OE1 GLU d   4    2560.347 788.563-2679.573  0.00  0.00    -0.648 OA
ATOM     65  OE2 GLU d   4    2560.685 789.790-2681.352  0.00  0.00    -0.648 OA
ENDBRANCH  62  63
ENDBRANCH  61  62
ENDBRANCH  30  61
ENDBRANCH  27  30
ENDBRANCH  25  26
BRANCH  25  66
ATOM     66  CB  SER d   5    2566.644 790.508-2677.036  0.00  0.00     0.199 C 
BRANCH  66  67
ATOM     67  OG  SER d   5    2567.375 789.628-2676.175  0.00  0.00    -0.398 OA
ATOM     68  HG  SER d   5    2566.885 788.803-2676.125  0.00  0.00     0.209 HD
ENDBRANCH  66  67
ENDBRANCH  25  66
ENDBRANCH  22  25
ENDBRANCH  20  21
BRANCH  20  69
ATOM     69  CB  ILE d   6    2570.408 786.954-2678.683  0.00  0.00     0.013 C 
ATOM     70  CG2 ILE d   6    2571.849 786.652-2679.198  0.00  0.00     0.012 C 
BRANCH  69  71
ATOM     71  CG1 ILE d   6    2570.427 786.892-2677.123  0.00  0.00     0.002 C 
ATOM     72  CD1 ILE d   6    2570.696 785.503-2676.507  0.00  0.00     0.005 C 
ENDBRANCH  69  71
ENDBRANCH  20  69
ENDBRANCH  17  20
ENDBRANCH  15  16
BRANCH  15  73
ATOM     73  CB  LEU d   7    2567.547 786.694-2683.304  0.00  0.00     0.038 C 
BRANCH  73  74
ATOM     74  CG  LEU d   7    2567.474 785.214-2682.837  0.00  0.00    -0.020 C 
ATOM     75  CD1 LEU d   7    2566.284 784.509-2683.503  0.00  0.00     0.009 C 
ATOM     76  CD2 LEU d   7    2568.767 784.435-2683.129  0.00  0.00     0.009 C 
ENDBRANCH  73  74
ENDBRANCH  15  73
ENDBRANCH  12  15
ENDBRANCH  10  11
BRANCH  10  77
ATOM     77  CB  ASP d   8    2566.694 791.979-2682.704  0.00  0.00     0.147 C 
BRANCH  77  78
ATOM     78  CG  ASP d   8    2566.476 793.400-2683.245  0.00  0.00     0.175 C 
ATOM     79  OD1 ASP d   8    2566.541 793.598-2684.476  0.00  0.00    -0.648 OA
ATOM     80  OD2 ASP d   8    2566.285 794.326-2682.430  0.00  0.00    -0.648 OA
ENDBRANCH  77  78
ENDBRANCH  10  77
ENDBRANCH   7  10
ENDBRANCH   5   6
BRANCH   5  81
ATOM     81  CB  GLU d   9    2571.736 792.219-2680.833  0.00  0.00     0.045 C 
BRANCH  81  82
ATOM     82  CG  GLU d   9    2573.119 792.910-2680.604  0.00  0.00     0.116 C 
BRANCH  82  83
ATOM     83  CD  GLU d   9    2573.821 792.697-2679.276  0.00  0.00     0.172 C 
ATOM     84  OE1 GLU d   9    2573.299 792.007-2678.379  0.00  0.00    -0.648 OA
ATOM     85  OE2 GLU d   9    2574.940 793.235-2679.145  0.00  0.00    -0.648 OA
ENDBRANCH  82  83
ENDBRANCH  81  82
ENDBRANCH   5  81
ENDBRANCH   1   5
BRANCH   3  86
ATOM     86  CA  HIS d  10    2573.003 790.110-2684.523  0.00  0.00     0.182 C 
BRANCH  86  87
ATOM     87  C   HIS d  10    2572.636 790.674-2685.875  0.00  0.00     0.241 C 
ATOM     88  O   HIS d  10    2573.489 791.138-2686.647  0.00  0.00    -0.271 OA
ATOM     89  N   VAL d  11    2571.398 790.673-2686.237  0.00  0.00    -0.346 N 
ATOM     90  H   VAL d  11    2570.685 790.301-2685.626  0.00  0.00     0.163 HD
BRANCH  89  91
ATOM     91  CA  VAL d  11    2571.043 791.219-2687.544  0.00  0.00     0.180 C 
BRANCH  91  92
ATOM     92  C   VAL d  11    2571.508 792.649-2687.678  0.00  0.00     0.241 C 
ATOM     93  O   VAL d  11    2572.109 793.053-2688.681  0.00  0.00    -0.271 OA
ATOM     94  N   GLN d  12    2571.272 793.475-2686.716  0.00  0.00    -0.346 N 
ATOM     95  H   GLN d  12    2570.783 793.170-2685.886  0.00  0.00     0.163 HD
BRANCH  94  96
ATOM     96  CA  GLN d  12    2571.721 794.858-2686.844  0.00  0.00     0.177 C 
BRANCH  96  97
ATOM     97  C   GLN d  12    2573.211 794.924-2687.082  0.00  0.00     0.241 C 
ATOM     98  O   GLN d  12    2573.698 795.632-2687.961  0.00  0.00    -0.271 OA
ATOM     99  N   ARG d  13    2573.995 794.218-2686.341  0.00  0.00    -0.346 N 
ATOM    100  H   ARG d  13    2573.619 793.629-2685.612  0.00  0.00     0.163 HD
BRANCH  99 101
ATOM    101  CA  ARG d  13    2575.436 794.283-2686.572  0.00  0.00     0.176 C 
BRANCH 101 102
ATOM    102  C   ARG d  13    2575.771 793.910-2687.997  0.00  0.00     0.241 C 
ATOM    103  O   ARG d  13    2576.540 794.582-2688.681  0.00  0.00    -0.271 OA
ATOM    104  N   VAL d  14    2575.235 792.856-2688.510  0.00  0.00    -0.346 N 
ATOM    105  H   VAL d  14    2574.600 792.288-2687.968  0.00  0.00     0.163 HD
BRANCH 104 106
ATOM    106  CA  VAL d  14    2575.559 792.496-2689.888  0.00  0.00     0.180 C 
BRANCH 106 107
ATOM    107  C   VAL d  14    2575.229 793.625-2690.834  0.00  0.00     0.241 C 
ATOM    108  O   VAL d  14    2576.022 794.006-2691.703  0.00  0.00    -0.271 OA
ATOM    109  N   MET d  15    2574.085 794.211-2690.732  0.00  0.00    -0.346 N 
ATOM    110  H   MET d  15    2573.420 793.919-2690.030  0.00  0.00     0.163 HD
BRANCH 109 111
ATOM    111  CA  MET d  15    2573.764 795.304-2691.646  0.00  0.00     0.177 C 
BRANCH 111 112
ATOM    112  C   MET d  15    2574.795 796.404-2691.559  0.00  0.00     0.241 C 
ATOM    113  O   MET d  15    2575.297 796.914-2692.572  0.00  0.00    -0.271 OA
ATOM    114  N   TYR d  16    2575.164 796.825-2690.396  0.00  0.00    -0.347 N 
ATOM    115  H   TYR d  16    2574.769 796.426-2689.557  0.00  0.00     0.163 HD
BRANCH 114 116
ATOM    116  CA  TYR d  16    2576.160 797.889-2690.313  0.00  0.00     0.166 C 
BRANCH 116 117
ATOM    117  C   TYR d  16    2577.430 797.497-2691.028  0.00  0.00     0.219 C 
ATOM    118  O   TYR d  16    2577.553 796.407-2691.593  0.00  0.00    -0.287 OA
ENDBRANCH 116 117
BRANCH 116 119
ATOM    119  CB  TYR d  16    2576.520 798.198-2688.830  0.00  0.00     0.072 C 
BRANCH 119 120
ATOM    120  CG  TYR d  16    2575.381 798.701-2687.936  0.00  0.00    -0.056 A 
ATOM    121  CD1 TYR d  16    2574.954 800.031-2688.006  0.00  0.00     0.010 A 
ATOM    122  CE1 TYR d  16    2573.908 800.472-2687.199  0.00  0.00     0.037 A 
ATOM    123  CZ  TYR d  16    2573.287 799.589-2686.319  0.00  0.00     0.065 A 
ATOM    124  CE2 TYR d  16    2573.710 798.264-2686.242  0.00  0.00     0.037 A 
ATOM    125  CD2 TYR d  16    2574.754 797.821-2687.048  0.00  0.00     0.010 A 
BRANCH 123 126
ATOM    126  OH  TYR d  16    2572.260 800.026-2685.531  0.00  0.00    -0.361 OA
ATOM    127  HH  TYR d  16    2571.955 799.291-2684.995  0.00  0.00     0.217 HD
ENDBRANCH 123 126
ENDBRANCH 119 120
ENDBRANCH 116 119
ENDBRANCH 114 116
ENDBRANCH 111 112
BRANCH 111 128
ATOM    128  CB  MET d  15    2572.343 795.850-2691.337  0.00  0.00     0.045 C 
BRANCH 128 129
ATOM    129  CG  MET d  15    2571.181 794.852-2691.528  0.00  0.00     0.076 C 
BRANCH 129 130
ATOM    130  SD  MET d  15    2569.607 795.718-2691.414  0.00  0.00    -0.173 SA
ATOM    131  CE  MET d  15    2568.526 794.289-2691.276  0.00  0.00     0.089 C 
ENDBRANCH 129 130
ENDBRANCH 128 129
ENDBRANCH 111 128
ENDBRANCH 109 111
ENDBRANCH 106 107
BRANCH 106 132
ATOM    132  CB  VAL d  14    2574.786 791.179-2690.294  0.00  0.00     0.009 C 
ATOM    133  CG1 VAL d  14    2574.875 790.759-2691.787  0.00  0.00     0.012 C 
ATOM    134  CG2 VAL d  14    2575.218 789.927-2689.493  0.00  0.00     0.012 C 
ENDBRANCH 106 132
ENDBRANCH 104 106
ENDBRANCH 101 102
BRANCH 101 135
ATOM    135  CB  ARG d  13    2576.149 793.345-2685.557  0.00  0.00     0.036 C 
BRANCH 135 136
ATOM    136  CG  ARG d  13    2577.694 793.497-2685.477  0.00  0.00     0.023 C 
BRANCH 136 137
ATOM    137  CD  ARG d  13    2578.321 792.510-2684.479  0.00  0.00     0.138 C 
BRANCH 137 138
ATOM    138  NE  ARG d  13    2579.798 792.717-2684.429  0.00  0.00    -0.227 N 
ATOM    139  CZ  ARG d  13    2580.646 792.026-2683.673  0.00  0.00     0.665 C 
ATOM    140  NH1 ARG d  13    2580.281 791.062-2682.875  0.00  0.00    -0.235 N 
ATOM    141  NH2 ARG d  13    2581.906 792.324-2683.731  0.00  0.00    -0.235 N 
ATOM    142 11HH ARG d  13    2579.276 790.876-2682.878  0.00  0.00     0.174 HD
ATOM    143 12HH ARG d  13    2580.994 790.579-2682.326  0.00  0.00     0.174 HD
ATOM    144 21HH ARG d  13    2582.174 793.082-2684.363  0.00  0.00     0.174 HD
ATOM    145 22HH ARG d  13    2582.541 791.783-2683.142  0.00  0.00     0.174 HD
ATOM    146  HE  ARG d  13    2580.249 793.439-2685.000  0.00  0.00     0.177 HD
ENDBRANCH 137 138
ENDBRANCH 136 137
ENDBRANCH 135 136
ENDBRANCH 101 135
ENDBRANCH  99 101
ENDBRANCH  96  97
BRANCH  96 147
ATOM    147  CB  GLN d  12    2571.331 795.626-2685.561  0.00  0.00     0.044 C 
BRANCH 147 148
ATOM    148  CG  GLN d  12    2571.692 797.148-2685.531  0.00  0.00     0.105 C 
BRANCH 148 149
ATOM    149  CD  GLN d  12    2571.390 797.962-2684.267  0.00  0.00     0.215 C 
ATOM    150  NE2 GLN d  12    2570.823 797.387-2683.237  0.00  0.00    -0.370 N 
ATOM    151 21HE GLN d  12    2570.717 797.982-2682.414  0.00  0.00     0.159 HD
ATOM    152 22HE GLN d  12    2570.659 796.383-2683.340  0.00  0.00     0.159 HD
ATOM    153  OE1 GLN d  12    2571.693 799.143-2684.190  0.00  0.00    -0.274 OA
ENDBRANCH 148 149
ENDBRANCH 147 148
ENDBRANCH  96 147
ENDBRANCH  94  96
ENDBRANCH  91  92
BRANCH  91 154
ATOM    154  CB  VAL d  11    2569.481 791.113-2687.763  0.00  0.00     0.009 C 
ATOM    155  CG1 VAL d  11    2568.913 791.816-2689.026  0.00  0.00     0.012 C 
ATOM    156  CG2 VAL d  11    2568.956 789.659-2687.835  0.00  0.00     0.012 C 
ENDBRANCH  91 154
ENDBRANCH  89  91
ENDBRANCH  86  87
BRANCH  86 157
ATOM    157  CB  HIS d  10    2572.838 788.581-2684.518  0.00  0.00     0.095 C 
BRANCH 157 158
ATOM    158  CG  HIS d  10    2574.124 787.870-2684.209  0.00  0.00     0.053 A 
ATOM    159  CD2 HIS d  10    2574.505 787.536-2682.917  0.00  0.00     0.116 A 
ATOM    160  NE2 HIS d  10    2575.719 786.903-2682.984  0.00  0.00    -0.359 N 
ATOM    161  CE1 HIS d  10    2575.981 786.905-2684.319  0.00  0.00     0.207 A 
ATOM    162  2HE HIS d  10    2576.286 786.526-2682.210  0.00  0.00     0.166 HD
ATOM    163  ND1 HIS d  10    2575.075 787.463-2685.142  0.00  0.00    -0.247 NA
ENDBRANCH 157 158
ENDBRANCH  86 157
ENDBRANCH   3  86
TORSDOF 67
