REMARK WARNING: 32 MAX_TORS EXCEEDED!!!
REMARK  67 active torsions:
REMARK  status: ('A' for Active; 'I' for Inactive)
REMARK    1  A    between atoms: N_1  and  CA_2 
REMARK    2  A    between atoms: CA_2  and  C_3 
REMARK    3  A    between atoms: CA_2  and  CB_5 
REMARK       I    between atoms: C_3  and  N_11 
REMARK    4  A    between atoms: CB_5  and  CG_6 
REMARK    5  A    between atoms: CG_6  and  CD_7 
REMARK    6  A    between atoms: N_11  and  CA_12 
REMARK    7  A    between atoms: CA_12  and  C_13 
REMARK    8  A    between atoms: CA_12  and  CB_15 
REMARK       I    between atoms: C_13  and  N_22 
REMARK    9  A    between atoms: CB_15  and  CG_16 
REMARK       I    between atoms: CG_16  and  ND2_17 
REMARK   10  A    between atoms: CA_23  and  C_24 
REMARK       I    between atoms: C_24  and  N_29 
REMARK   11  A    between atoms: N_29  and  CA_30 
REMARK   12  A    between atoms: CA_30  and  C_31 
REMARK   13  A    between atoms: CA_30  and  CB_33 
REMARK       I    between atoms: C_31  and  N_39 
REMARK   14  A    between atoms: CB_33  and  CG_34 
REMARK   15  A    between atoms: CG_34  and  CD_35 
REMARK   16  A    between atoms: N_39  and  CA_40 
REMARK   17  A    between atoms: CA_40  and  C_41 
REMARK   18  A    between atoms: CA_40  and  CB_43 
REMARK       I    between atoms: C_41  and  N_47 
REMARK   19  A    between atoms: CB_43  and  OG_44 
REMARK   20  A    between atoms: N_47  and  CA_48 
REMARK   21  A    between atoms: CA_48  and  C_49 
REMARK   22  A    between atoms: CA_48  and  CB_51 
REMARK       I    between atoms: C_49  and  N_56 
REMARK   23  A    between atoms: CB_51  and  CG1_52 
REMARK   24  A    between atoms: N_56  and  CA_57 
REMARK   25  A    between atoms: CA_57  and  C_58 
REMARK   26  A    between atoms: CA_57  and  CB_60 
REMARK       I    between atoms: C_58  and  N_65 
REMARK   27  A    between atoms: CB_60  and  CG_61 
REMARK   28  A    between atoms: N_65  and  CA_66 
REMARK   29  A    between atoms: CA_66  and  C_67 
REMARK   30  A    between atoms: CA_66  and  CB_69 
REMARK       I    between atoms: C_67  and  N_74 
REMARK   31  A    between atoms: CB_69  and  CG_70 
REMARK   32  A    between atoms: N_74  and  CA_75 
REMARK   33  A    between atoms: CA_75  and  C_76 
REMARK   34  A    between atoms: CA_75  and  CB_78 
REMARK       I    between atoms: C_76  and  N_84 
REMARK   35  A    between atoms: CB_78  and  CG_79 
REMARK   36  A    between atoms: CG_79  and  CD_80 
REMARK   37  A    between atoms: N_84  and  CA_85 
REMARK   38  A    between atoms: CA_85  and  C_86 
REMARK   39  A    between atoms: CA_85  and  CB_88 
REMARK       I    between atoms: C_86  and  N_96 
REMARK   40  A    between atoms: CB_88  and  CG_89 
REMARK   41  A    between atoms: N_96  and  CA_97 
REMARK   42  A    between atoms: CA_97  and  C_98 
REMARK   43  A    between atoms: CA_97  and  CB_100 
REMARK       I    between atoms: C_98  and  N_104 
REMARK   44  A    between atoms: N_104  and  CA_105 
REMARK   45  A    between atoms: CA_105  and  C_106 
REMARK   46  A    between atoms: CA_105  and  CB_108 
REMARK       I    between atoms: C_106  and  N_116 
REMARK   47  A    between atoms: CB_108  and  CG_109 
REMARK   48  A    between atoms: CG_109  and  CD_110 
REMARK       I    between atoms: CD_110  and  NE2_111 
REMARK   49  A    between atoms: N_116  and  CA_117 
REMARK   50  A    between atoms: CA_117  and  C_118 
REMARK   51  A    between atoms: CA_117  and  CB_120 
REMARK       I    between atoms: C_118  and  N_133 
REMARK   52  A    between atoms: CB_120  and  CG_121 
REMARK   53  A    between atoms: CG_121  and  CD_122 
REMARK   54  A    between atoms: CD_122  and  NE_123 
REMARK       I    between atoms: NE_123  and  CZ_124 
REMARK       I    between atoms: CZ_124  and  NH1_125 
REMARK       I    between atoms: CZ_124  and  NH2_126 
REMARK   55  A    between atoms: N_133  and  CA_134 
REMARK   56  A    between atoms: CA_134  and  C_135 
REMARK   57  A    between atoms: CA_134  and  CB_137 
REMARK       I    between atoms: C_135  and  N_141 
REMARK   58  A    between atoms: N_141  and  CA_142 
REMARK   59  A    between atoms: CA_142  and  C_143 
REMARK   60  A    between atoms: CA_142  and  CB_145 
REMARK       I    between atoms: C_143  and  N_150 
REMARK   61  A    between atoms: CB_145  and  CG1_146 
REMARK   62  A    between atoms: N_150  and  CA_151 
REMARK   63  A    between atoms: CA_151  and  C_152 
REMARK   64  A    between atoms: CA_151  and  CB_154 
REMARK   65  A    between atoms: CB_154  and  CG_155 
REMARK   66  A    between atoms: CG_155  and  CD_156 
REMARK   67  A    between atoms: CD_156  and  NE_157 
REMARK       I    between atoms: NE_157  and  CZ_158 
REMARK       I    between atoms: CZ_158  and  NH1_159 
ROOT
ATOM      1  C   GLU d   9    2384.530 732.862-2478.874  0.00  0.00     0.241 C 
ATOM      2  O   GLU d   9    2385.194 733.616-2479.600  0.00  0.00    -0.271 OA
ATOM      3  N   HIS d  10    2384.626 731.587-2479.043  0.00  0.00    -0.346 N 
ATOM      4  H   HIS d  10    2384.095 730.952-2478.464  0.00  0.00     0.163 HD
ENDROOT
BRANCH   1   5
ATOM      5  CA  GLU d   9    2383.613 733.391-2477.798  0.00  0.00     0.177 C 
BRANCH   5   6
ATOM      6  N   GLU d   9    2382.309 732.734-2477.853  0.00  0.00    -0.346 N 
ATOM      7  C   ASP d   8    2381.629 732.783-2478.948  0.00  0.00     0.241 C 
ATOM      8  O   ASP d   8    2382.102 733.388-2479.923  0.00  0.00    -0.271 OA
ATOM      9  H   GLU d   9    2381.946 732.248-2477.046  0.00  0.00     0.163 HD
BRANCH   7  10
ATOM     10  CA  ASP d   8    2380.282 732.104-2479.005  0.00  0.00     0.186 C 
BRANCH  10  11
ATOM     11  N   ASP d   8    2380.352 730.755-2478.451  0.00  0.00    -0.346 N 
ATOM     12  C   LEU d   7    2381.189 729.914-2478.957  0.00  0.00     0.241 C 
ATOM     13  O   LEU d   7    2381.910 730.276-2479.899  0.00  0.00    -0.271 OA
ATOM     14  H   ASP d   8    2379.754 730.485-2477.683  0.00  0.00     0.163 HD
BRANCH  12  15
ATOM     15  CA  LEU d   7    2381.261 728.518-2478.384  0.00  0.00     0.177 C 
BRANCH  15  16
ATOM     16  N   LEU d   7    2381.316 728.555-2476.925  0.00  0.00    -0.346 N 
ATOM     17  C   ILE d   6    2382.262 729.218-2476.352  0.00  0.00     0.241 C 
ATOM     18  O   ILE d   6    2383.097 729.805-2477.056  0.00  0.00    -0.271 OA
ATOM     19  H   LEU d   7    2380.624 728.068-2476.374  0.00  0.00     0.163 HD
BRANCH  17  20
ATOM     20  CA  ILE d   6    2382.319 729.255-2474.844  0.00  0.00     0.180 C 
BRANCH  20  21
ATOM     21  N   ILE d   6    2381.006 729.551-2474.278  0.00  0.00    -0.346 N 
ATOM     22  C   SER d   5    2380.402 730.634-2474.632  0.00  0.00     0.243 C 
ATOM     23  O   SER d   5    2380.949 731.388-2475.437  0.00  0.00    -0.271 OA
ATOM     24  H   ILE d   6    2380.577 728.917-2473.619  0.00  0.00     0.163 HD
BRANCH  22  25
ATOM     25  CA  SER d   5    2379.043 730.940-2474.047  0.00  0.00     0.200 C 
BRANCH  25  26
ATOM     26  N   SER d   5    2378.173 729.769-2474.106  0.00  0.00    -0.344 N 
ATOM     27  C   GLU d   4    2377.946 729.217-2475.249  0.00  0.00     0.241 C 
ATOM     28  O   GLU d   4    2378.473 729.696-2476.263  0.00  0.00    -0.271 OA
ATOM     29  H   SER d   5    2377.755 729.398-2473.265  0.00  0.00     0.163 HD
BRANCH  27  30
ATOM     30  CA  GLU d   4    2377.047 728.006-2475.311  0.00  0.00     0.177 C 
BRANCH  30  31
ATOM     31  N   GLU d   4    2377.406 727.035-2474.281  0.00  0.00    -0.346 N 
ATOM     32  C   PRO d   3    2378.611 726.575-2474.248  0.00  0.00     0.241 C 
ATOM     33  O   PRO d   3    2379.434 726.958-2475.080  0.00  0.00    -0.271 OA
ATOM     34  H   GLU d   4    2376.721 726.728-2473.604  0.00  0.00     0.163 HD
BRANCH  32  35
ATOM     35  CA  PRO d   3    2379.008 725.551-2473.171  0.00  0.00     0.179 C 
ATOM     36  N   PRO d   3    2378.556 725.960-2471.850  0.00  0.00    -0.337 N 
ATOM     37  C   ASN d   2    2379.078 726.955-2471.216  0.00  0.00     0.243 C 
ATOM     38  CD  PRO d   3    2377.478 725.167-2471.301  0.00  0.00     0.127 C 
ATOM     39  O   ASN d   2    2379.993 727.586-2471.744  0.00  0.00    -0.271 OA
ATOM     40  CG  PRO d   3    2377.020 724.349-2472.511  0.00  0.00     0.022 C 
ATOM     41  CB  PRO d   3    2378.304 724.196-2473.341  0.00  0.00     0.037 C 
BRANCH  37  42
ATOM     42  CA  ASN d   2    2378.546 727.311-2469.847  0.00  0.00     0.185 C 
BRANCH  42  43
ATOM     43  N   ASN d   2    2377.087 727.350-2469.847  0.00  0.00    -0.346 N 
ATOM     44  C   GLU d   1    2376.482 728.136-2470.672  0.00  0.00     0.242 C 
ATOM     45  O   GLU d   1    2377.158 728.835-2471.441  0.00  0.00    -0.271 OA
ATOM     46  H   ASN d   2    2376.559 726.770-2469.211  0.00  0.00     0.163 HD
BRANCH  44  47
ATOM     47  CA  GLU d   1    2374.973 728.176-2470.672  0.00  0.00     0.191 C 
BRANCH  47  48
ATOM     48  N   GLU d   1    2374.414 726.827-2470.672  0.00  0.00    -0.326 NA
ATOM     49  H   GLU d   1    2375.041 725.948-2470.672  0.00  0.00     0.180 HD
ENDBRANCH  47  48
BRANCH  47  50
ATOM     50  CB  GLU d   1    2374.450 728.961-2469.436  0.00  0.00     0.047 C 
BRANCH  50  51
ATOM     51  CG  GLU d   1    2374.925 730.446-2469.324  0.00  0.00     0.116 C 
BRANCH  51  52
ATOM     52  CD  GLU d   1    2374.501 731.250-2468.109  0.00  0.00     0.172 C 
ATOM     53  OE1 GLU d   1    2373.773 730.748-2467.231  0.00  0.00    -0.648 OA
ATOM     54  OE2 GLU d   1    2374.931 732.420-2468.037  0.00  0.00    -0.648 OA
ENDBRANCH  51  52
ENDBRANCH  50  51
ENDBRANCH  47  50
ENDBRANCH  44  47
ENDBRANCH  42  43
BRANCH  42  55
ATOM     55  CB  ASN d   2    2379.038 726.288-2468.782  0.00  0.00     0.137 C 
BRANCH  55  56
ATOM     56  CG  ASN d   2    2378.574 726.512-2467.339  0.00  0.00     0.217 C 
ATOM     57  ND2 ASN d   2    2379.168 727.426-2466.621  0.00  0.00    -0.370 N 
ATOM     58 21HD ASN d   2    2378.688 727.600-2465.735  0.00  0.00     0.159 HD
ATOM     59 22HD ASN d   2    2379.870 727.998-2467.090  0.00  0.00     0.159 HD
ATOM     60  OD1 ASN d   2    2377.653 725.878-2466.845  0.00  0.00    -0.274 OA
ENDBRANCH  55  56
ENDBRANCH  42  55
ENDBRANCH  37  42
ENDBRANCH  32  35
ENDBRANCH  30  31
BRANCH  30  61
ATOM     61  CB  GLU d   4    2375.558 728.425-2475.141  0.00  0.00     0.045 C 
BRANCH  61  62
ATOM     62  CG  GLU d   4    2375.011 729.429-2476.207  0.00  0.00     0.116 C 
BRANCH  62  63
ATOM     63  CD  GLU d   4    2373.584 729.926-2476.064  0.00  0.00     0.172 C 
ATOM     64  OE1 GLU d   4    2372.857 729.528-2475.133  0.00  0.00    -0.648 OA
ATOM     65  OE2 GLU d   4    2373.195 730.755-2476.912  0.00  0.00    -0.648 OA
ENDBRANCH  62  63
ENDBRANCH  61  62
ENDBRANCH  30  61
ENDBRANCH  27  30
ENDBRANCH  25  26
BRANCH  25  66
ATOM     66  CB  SER d   5    2379.154 731.472-2472.597  0.00  0.00     0.199 C 
BRANCH  66  67
ATOM     67  OG  SER d   5    2379.885 730.593-2471.736  0.00  0.00    -0.398 OA
ATOM     68  HG  SER d   5    2379.396 729.768-2471.685  0.00  0.00     0.209 HD
ENDBRANCH  66  67
ENDBRANCH  25  66
ENDBRANCH  22  25
ENDBRANCH  20  21
BRANCH  20  69
ATOM     69  CB  ILE d   6    2382.918 727.919-2474.244  0.00  0.00     0.013 C 
ATOM     70  CG2 ILE d   6    2384.359 727.617-2474.759  0.00  0.00     0.012 C 
BRANCH  69  71
ATOM     71  CG1 ILE d   6    2382.937 727.857-2472.683  0.00  0.00     0.002 C 
ATOM     72  CD1 ILE d   6    2383.207 726.468-2472.068  0.00  0.00     0.005 C 
ENDBRANCH  69  71
ENDBRANCH  20  69
ENDBRANCH  17  20
ENDBRANCH  15  16
BRANCH  15  73
ATOM     73  CB  LEU d   7    2380.058 727.659-2478.864  0.00  0.00     0.038 C 
BRANCH  73  74
ATOM     74  CG  LEU d   7    2379.984 726.179-2478.398  0.00  0.00    -0.020 C 
ATOM     75  CD1 LEU d   7    2378.794 725.474-2479.063  0.00  0.00     0.009 C 
ATOM     76  CD2 LEU d   7    2381.278 725.400-2478.689  0.00  0.00     0.009 C 
ENDBRANCH  73  74
ENDBRANCH  15  73
ENDBRANCH  12  15
ENDBRANCH  10  11
BRANCH  10  77
ATOM     77  CB  ASP d   8    2379.205 732.944-2478.264  0.00  0.00     0.147 C 
BRANCH  77  78
ATOM     78  CG  ASP d   8    2378.987 734.365-2478.805  0.00  0.00     0.175 C 
ATOM     79  OD1 ASP d   8    2379.051 734.563-2480.036  0.00  0.00    -0.648 OA
ATOM     80  OD2 ASP d   8    2378.795 735.291-2477.990  0.00  0.00    -0.648 OA
ENDBRANCH  77  78
ENDBRANCH  10  77
ENDBRANCH   7  10
ENDBRANCH   5   6
BRANCH   5  81
ATOM     81  CB  GLU d   9    2384.246 733.183-2476.393  0.00  0.00     0.045 C 
BRANCH  81  82
ATOM     82  CG  GLU d   9    2385.629 733.875-2476.164  0.00  0.00     0.116 C 
BRANCH  82  83
ATOM     83  CD  GLU d   9    2386.331 733.662-2474.836  0.00  0.00     0.172 C 
ATOM     84  OE1 GLU d   9    2385.809 732.972-2473.939  0.00  0.00    -0.648 OA
ATOM     85  OE2 GLU d   9    2387.450 734.200-2474.705  0.00  0.00    -0.648 OA
ENDBRANCH  82  83
ENDBRANCH  81  82
ENDBRANCH   5  81
ENDBRANCH   1   5
BRANCH   3  86
ATOM     86  CA  HIS d  10    2385.513 731.075-2480.083  0.00  0.00     0.182 C 
BRANCH  86  87
ATOM     87  C   HIS d  10    2385.146 731.639-2481.435  0.00  0.00     0.241 C 
ATOM     88  O   HIS d  10    2385.999 732.103-2482.207  0.00  0.00    -0.271 OA
ATOM     89  N   VAL d  11    2383.908 731.638-2481.798  0.00  0.00    -0.346 N 
ATOM     90  H   VAL d  11    2383.195 731.266-2481.187  0.00  0.00     0.163 HD
BRANCH  89  91
ATOM     91  CA  VAL d  11    2383.553 732.184-2483.105  0.00  0.00     0.180 C 
BRANCH  91  92
ATOM     92  C   VAL d  11    2384.019 733.614-2483.238  0.00  0.00     0.241 C 
ATOM     93  O   VAL d  11    2384.620 734.018-2484.241  0.00  0.00    -0.271 OA
ATOM     94  N   GLN d  12    2383.782 734.440-2482.276  0.00  0.00    -0.346 N 
ATOM     95  H   GLN d  12    2383.293 734.135-2481.447  0.00  0.00     0.163 HD
BRANCH  94  96
ATOM     96  CA  GLN d  12    2384.231 735.823-2482.404  0.00  0.00     0.177 C 
BRANCH  96  97
ATOM     97  C   GLN d  12    2385.721 735.889-2482.642  0.00  0.00     0.241 C 
ATOM     98  O   GLN d  12    2386.208 736.597-2483.521  0.00  0.00    -0.271 OA
ATOM     99  N   ARG d  13    2386.506 735.183-2481.901  0.00  0.00    -0.346 N 
ATOM    100  H   ARG d  13    2386.129 734.593-2481.172  0.00  0.00     0.163 HD
BRANCH  99 101
ATOM    101  CA  ARG d  13    2387.946 735.248-2482.132  0.00  0.00     0.176 C 
BRANCH 101 102
ATOM    102  C   ARG d  13    2388.282 734.875-2483.557  0.00  0.00     0.241 C 
ATOM    103  O   ARG d  13    2389.051 735.547-2484.242  0.00  0.00    -0.271 OA
ATOM    104  N   VAL d  14    2387.745 733.821-2484.071  0.00  0.00    -0.346 N 
ATOM    105  H   VAL d  14    2387.110 733.253-2483.528  0.00  0.00     0.163 HD
BRANCH 104 106
ATOM    106  CA  VAL d  14    2388.070 733.460-2485.448  0.00  0.00     0.180 C 
BRANCH 106 107
ATOM    107  C   VAL d  14    2387.740 734.590-2486.394  0.00  0.00     0.241 C 
ATOM    108  O   VAL d  14    2388.533 734.971-2487.264  0.00  0.00    -0.271 OA
ATOM    109  N   ILE d  15    2386.595 735.176-2486.292  0.00  0.00    -0.346 N 
ATOM    110  H   ILE d  15    2385.930 734.884-2485.590  0.00  0.00     0.163 HD
BRANCH 109 111
ATOM    111  CA  ILE d  15    2386.276 736.269-2487.207  0.00  0.00     0.180 C 
BRANCH 111 112
ATOM    112  C   ILE d  15    2387.308 737.367-2487.119  0.00  0.00     0.241 C 
ATOM    113  O   ILE d  15    2387.812 737.877-2488.130  0.00  0.00    -0.271 OA
ATOM    114  N   ARG d  16    2387.676 737.788-2485.956  0.00  0.00    -0.347 N 
ATOM    115  H   ARG d  16    2387.280 737.388-2485.117  0.00  0.00     0.163 HD
BRANCH 114 116
ATOM    116  CA  ARG d  16    2388.675 738.850-2485.871  0.00  0.00     0.162 C 
BRANCH 116 117
ATOM    117  C   ARG d  16    2389.945 738.455-2486.586  0.00  0.00     0.219 C 
ATOM    118  O   ARG d  16    2390.058 737.378-2487.168  0.00  0.00    -0.287 OA
ENDBRANCH 116 117
BRANCH 116 119
ATOM    119  CB  ARG d  16    2388.943 739.167-2484.373  0.00  0.00     0.035 C 
BRANCH 119 120
ATOM    120  CG  ARG d  16    2389.770 740.455-2484.099  0.00  0.00     0.023 C 
BRANCH 120 121
ATOM    121  CD  ARG d  16    2390.019 740.673-2482.597  0.00  0.00     0.138 C 
BRANCH 121 122
ATOM    122  NE  ARG d  16    2390.796 741.931-2482.396  0.00  0.00    -0.227 N 
ATOM    123  CZ  ARG d  16    2391.188 742.413-2481.219  0.00  0.00     0.665 C 
ATOM    124  NH1 ARG d  16    2390.938 741.829-2480.081  0.00  0.00    -0.235 N 
ATOM    125  NH2 ARG d  16    2391.854 743.524-2481.200  0.00  0.00    -0.235 N 
ATOM    126 11HH ARG d  16    2390.411 740.957-2480.167  0.00  0.00     0.174 HD
ATOM    127 12HH ARG d  16    2391.272 742.264-2479.220  0.00  0.00     0.174 HD
ATOM    128 21HH ARG d  16    2392.040 743.967-2482.102  0.00  0.00     0.174 HD
ATOM    129 22HH ARG d  16    2392.144 743.879-2480.288  0.00  0.00     0.174 HD
ATOM    130  HE  ARG d  16    2391.077 742.512-2483.192  0.00  0.00     0.177 HD
ENDBRANCH 121 122
ENDBRANCH 120 121
ENDBRANCH 119 120
ENDBRANCH 116 119
ENDBRANCH 114 116
ENDBRANCH 111 112
BRANCH 111 131
ATOM    131  CB  ILE d  15    2384.811 736.816-2486.961  0.00  0.00     0.013 C 
ATOM    132  CG2 ILE d  15    2384.401 737.926-2487.979  0.00  0.00     0.012 C 
BRANCH 131 133
ATOM    133  CG1 ILE d  15    2383.698 735.720-2486.963  0.00  0.00     0.002 C 
ATOM    134  CD1 ILE d  15    2382.323 736.157-2486.416  0.00  0.00     0.005 C 
ENDBRANCH 131 133
ENDBRANCH 111 131
ENDBRANCH 109 111
ENDBRANCH 106 107
BRANCH 106 135
ATOM    135  CB  VAL d  14    2387.297 732.143-2485.854  0.00  0.00     0.009 C 
ATOM    136  CG1 VAL d  14    2387.385 731.724-2487.347  0.00  0.00     0.012 C 
ATOM    137  CG2 VAL d  14    2387.728 730.891-2485.053  0.00  0.00     0.012 C 
ENDBRANCH 106 135
ENDBRANCH 104 106
ENDBRANCH 101 102
BRANCH 101 138
ATOM    138  CB  ARG d  13    2388.659 734.309-2481.118  0.00  0.00     0.036 C 
BRANCH 138 139
ATOM    139  CG  ARG d  13    2390.204 734.462-2481.037  0.00  0.00     0.023 C 
BRANCH 139 140
ATOM    140  CD  ARG d  13    2390.831 733.475-2480.039  0.00  0.00     0.138 C 
BRANCH 140 141
ATOM    141  NE  ARG d  13    2392.308 733.682-2479.989  0.00  0.00    -0.227 N 
ATOM    142  CZ  ARG d  13    2393.157 732.991-2479.234  0.00  0.00     0.665 C 
ATOM    143  NH1 ARG d  13    2392.792 732.027-2478.435  0.00  0.00    -0.235 N 
ATOM    144  NH2 ARG d  13    2394.416 733.289-2479.291  0.00  0.00    -0.235 N 
ATOM    145 11HH ARG d  13    2391.786 731.841-2478.438  0.00  0.00     0.174 HD
ATOM    146 12HH ARG d  13    2393.505 731.544-2477.886  0.00  0.00     0.174 HD
ATOM    147 21HH ARG d  13    2394.684 734.047-2479.923  0.00  0.00     0.174 HD
ATOM    148 22HH ARG d  13    2395.052 732.748-2478.702  0.00  0.00     0.174 HD
ATOM    149  HE  ARG d  13    2392.760 734.404-2480.561  0.00  0.00     0.177 HD
ENDBRANCH 140 141
ENDBRANCH 139 140
ENDBRANCH 138 139
ENDBRANCH 101 138
ENDBRANCH  99 101
ENDBRANCH  96  97
BRANCH  96 150
ATOM    150  CB  GLN d  12    2383.841 736.591-2481.122  0.00  0.00     0.044 C 
BRANCH 150 151
ATOM    151  CG  GLN d  12    2384.202 738.113-2481.091  0.00  0.00     0.105 C 
BRANCH 151 152
ATOM    152  CD  GLN d  12    2383.901 738.927-2479.827  0.00  0.00     0.215 C 
ATOM    153  NE2 GLN d  12    2383.334 738.352-2478.798  0.00  0.00    -0.370 N 
ATOM    154 21HE GLN d  12    2383.227 738.947-2477.974  0.00  0.00     0.159 HD
ATOM    155 22HE GLN d  12    2383.169 737.348-2478.900  0.00  0.00     0.159 HD
ATOM    156  OE1 GLN d  12    2384.203 740.108-2479.750  0.00  0.00    -0.274 OA
ENDBRANCH 151 152
ENDBRANCH 150 151
ENDBRANCH  96 150
ENDBRANCH  94  96
ENDBRANCH  91  92
BRANCH  91 157
ATOM    157  CB  VAL d  11    2381.992 732.078-2483.324  0.00  0.00     0.009 C 
ATOM    158  CG1 VAL d  11    2381.424 732.781-2484.587  0.00  0.00     0.012 C 
ATOM    159  CG2 VAL d  11    2381.467 730.624-2483.396  0.00  0.00     0.012 C 
ENDBRANCH  91 157
ENDBRANCH  89  91
ENDBRANCH  86  87
BRANCH  86 160
ATOM    160  CB  HIS d  10    2385.349 729.546-2480.078  0.00  0.00     0.095 C 
BRANCH 160 161
ATOM    161  CG  HIS d  10    2386.634 728.835-2479.770  0.00  0.00     0.053 A 
ATOM    162  CD2 HIS d  10    2387.015 728.500-2478.477  0.00  0.00     0.116 A 
ATOM    163  NE2 HIS d  10    2388.230 727.868-2478.544  0.00  0.00    -0.359 N 
ATOM    164  CE1 HIS d  10    2388.492 727.870-2479.879  0.00  0.00     0.207 A 
ATOM    165  2HE HIS d  10    2388.797 727.491-2477.771  0.00  0.00     0.166 HD
ATOM    166  ND1 HIS d  10    2387.585 728.428-2480.702  0.00  0.00    -0.247 NA
ENDBRANCH 160 161
ENDBRANCH  86 160
ENDBRANCH   3  86
TORSDOF 67
