REMARK WARNING: 32 MAX_TORS EXCEEDED!!!
REMARK  68 active torsions:
REMARK  status: ('A' for Active; 'I' for Inactive)
REMARK    1  A    between atoms: N_1  and  CA_2 
REMARK    2  A    between atoms: CA_2  and  C_3 
REMARK    3  A    between atoms: CA_2  and  CB_5 
REMARK       I    between atoms: C_3  and  N_11 
REMARK    4  A    between atoms: CB_5  and  CG_6 
REMARK    5  A    between atoms: CG_6  and  CD_7 
REMARK    6  A    between atoms: N_11  and  CA_12 
REMARK    7  A    between atoms: CA_12  and  C_13 
REMARK    8  A    between atoms: CA_12  and  CB_15 
REMARK       I    between atoms: C_13  and  N_22 
REMARK    9  A    between atoms: CB_15  and  CG_16 
REMARK       I    between atoms: CG_16  and  ND2_17 
REMARK   10  A    between atoms: CA_23  and  C_24 
REMARK       I    between atoms: C_24  and  N_29 
REMARK   11  A    between atoms: N_29  and  CA_30 
REMARK   12  A    between atoms: CA_30  and  C_31 
REMARK   13  A    between atoms: CA_30  and  CB_33 
REMARK       I    between atoms: C_31  and  N_39 
REMARK   14  A    between atoms: CB_33  and  CG_34 
REMARK   15  A    between atoms: CG_34  and  CD_35 
REMARK   16  A    between atoms: N_39  and  CA_40 
REMARK   17  A    between atoms: CA_40  and  C_41 
REMARK   18  A    between atoms: CA_40  and  CB_43 
REMARK       I    between atoms: C_41  and  N_47 
REMARK   19  A    between atoms: CB_43  and  OG_44 
REMARK   20  A    between atoms: N_47  and  CA_48 
REMARK   21  A    between atoms: CA_48  and  C_49 
REMARK   22  A    between atoms: CA_48  and  CB_51 
REMARK       I    between atoms: C_49  and  N_58 
REMARK   23  A    between atoms: CB_51  and  CG_52 
REMARK       I    between atoms: CG_52  and  ND2_53 
REMARK   24  A    between atoms: N_58  and  CA_59 
REMARK   25  A    between atoms: CA_59  and  C_60 
REMARK   26  A    between atoms: CA_59  and  CB_62 
REMARK       I    between atoms: C_60  and  N_67 
REMARK   27  A    between atoms: CB_62  and  CG_63 
REMARK   28  A    between atoms: N_67  and  CA_68 
REMARK   29  A    between atoms: CA_68  and  C_69 
REMARK   30  A    between atoms: CA_68  and  CB_71 
REMARK       I    between atoms: C_69  and  N_76 
REMARK   31  A    between atoms: CB_71  and  CG_72 
REMARK   32  A    between atoms: N_76  and  CA_77 
REMARK   33  A    between atoms: CA_77  and  C_78 
REMARK   34  A    between atoms: CA_77  and  CB_80 
REMARK       I    between atoms: C_78  and  N_86 
REMARK   35  A    between atoms: CB_80  and  CG_81 
REMARK   36  A    between atoms: CG_81  and  CD_82 
REMARK   37  A    between atoms: N_86  and  CA_87 
REMARK   38  A    between atoms: CA_87  and  C_88 
REMARK   39  A    between atoms: CA_87  and  CB_90 
REMARK       I    between atoms: C_88  and  N_98 
REMARK   40  A    between atoms: CB_90  and  CG_91 
REMARK   41  A    between atoms: N_98  and  CA_99 
REMARK   42  A    between atoms: CA_99  and  C_100 
REMARK   43  A    between atoms: CA_99  and  CB_102 
REMARK       I    between atoms: C_100  and  N_106 
REMARK   44  A    between atoms: N_106  and  CA_107 
REMARK   45  A    between atoms: CA_107  and  C_108 
REMARK   46  A    between atoms: CA_107  and  CB_110 
REMARK       I    between atoms: C_108  and  N_118 
REMARK   47  A    between atoms: CB_110  and  CG_111 
REMARK   48  A    between atoms: CG_111  and  CD_112 
REMARK       I    between atoms: CD_112  and  NE2_113 
REMARK   49  A    between atoms: N_118  and  CA_119 
REMARK   50  A    between atoms: CA_119  and  C_120 
REMARK   51  A    between atoms: CA_119  and  CB_122 
REMARK       I    between atoms: C_120  and  N_135 
REMARK   52  A    between atoms: CB_122  and  CG_123 
REMARK   53  A    between atoms: CG_123  and  CD_124 
REMARK   54  A    between atoms: CD_124  and  NE_125 
REMARK       I    between atoms: NE_125  and  CZ_126 
REMARK       I    between atoms: CZ_126  and  NH1_127 
REMARK       I    between atoms: CZ_126  and  NH2_128 
REMARK   55  A    between atoms: N_135  and  CA_136 
REMARK   56  A    between atoms: CA_136  and  C_137 
REMARK   57  A    between atoms: CA_136  and  CB_139 
REMARK       I    between atoms: C_137  and  N_143 
REMARK   58  A    between atoms: N_143  and  CA_144 
REMARK   59  A    between atoms: CA_144  and  C_145 
REMARK   60  A    between atoms: CA_144  and  CB_147 
REMARK       I    between atoms: C_145  and  N_152 
REMARK   61  A    between atoms: CB_147  and  CG_148 
REMARK   62  A    between atoms: CG_148  and  SD_149 
REMARK   63  A    between atoms: N_152  and  CA_153 
REMARK   64  A    between atoms: CA_153  and  C_154 
REMARK   65  A    between atoms: CA_153  and  CB_156 
REMARK   66  A    between atoms: CB_156  and  CG_157 
REMARK   67  A    between atoms: CG_157  and  CD_158 
REMARK   68  A    between atoms: CD_158  and  NE_159 
REMARK       I    between atoms: NE_159  and  CZ_160 
REMARK       I    between atoms: CZ_160  and  NH1_161 
ROOT
ATOM      1  C   GLU d   9     985.944 274.903-958.898  0.00  0.00     0.241 C 
ATOM      2  O   GLU d   9     986.608 275.657-959.624  0.00  0.00    -0.271 OA
ATOM      3  N   HIS d  10     986.041 273.628-959.068  0.00  0.00    -0.346 N 
ATOM      4  H   HIS d  10     985.511 272.992-958.489  0.00  0.00     0.163 HD
ENDROOT
BRANCH   1   5
ATOM      5  CA  GLU d   9     985.027 275.430-957.822  0.00  0.00     0.177 C 
BRANCH   5   6
ATOM      6  N   GLU d   9     983.724 274.772-957.876  0.00  0.00    -0.346 N 
ATOM      7  C   ASP d   8     983.044 274.822-958.971  0.00  0.00     0.241 C 
ATOM      8  O   ASP d   8     983.516 275.427-959.946  0.00  0.00    -0.271 OA
ATOM      9  H   GLU d   9     983.362 274.286-957.069  0.00  0.00     0.163 HD
BRANCH   7  10
ATOM     10  CA  ASP d   8     981.697 274.142-959.027  0.00  0.00     0.186 C 
BRANCH  10  11
ATOM     11  N   ASP d   8     981.768 272.792-958.474  0.00  0.00    -0.346 N 
ATOM     12  C   LEU d   7     982.606 271.952-958.981  0.00  0.00     0.241 C 
ATOM     13  O   LEU d   7     983.325 272.315-959.924  0.00  0.00    -0.271 OA
ATOM     14  H   ASP d   8     981.171 272.521-957.706  0.00  0.00     0.163 HD
BRANCH  12  15
ATOM     15  CA  LEU d   7     982.679 270.557-958.409  0.00  0.00     0.177 C 
BRANCH  15  16
ATOM     16  N   LEU d   7     982.735 270.593-956.950  0.00  0.00    -0.346 N 
ATOM     17  C   ASN d   6     983.681 271.257-956.377  0.00  0.00     0.241 C 
ATOM     18  O   ASN d   6     984.508 271.840-957.077  0.00  0.00    -0.271 OA
ATOM     19  H   LEU d   7     982.043 270.106-956.398  0.00  0.00     0.163 HD
BRANCH  17  20
ATOM     20  CA  ASN d   6     983.739 271.294-954.868  0.00  0.00     0.185 C 
BRANCH  20  21
ATOM     21  N   ASN d   6     982.426 271.589-954.302  0.00  0.00    -0.345 N 
ATOM     22  C   SER d   5     981.821 272.672-954.656  0.00  0.00     0.243 C 
ATOM     23  O   SER d   5     982.368 273.425-955.461  0.00  0.00    -0.271 OA
ATOM     24  H   ASN d   6     981.998 270.954-953.643  0.00  0.00     0.163 HD
BRANCH  22  25
ATOM     25  CA  SER d   5     980.462 272.977-954.071  0.00  0.00     0.200 C 
BRANCH  25  26
ATOM     26  N   SER d   5     979.593 271.806-954.129  0.00  0.00    -0.344 N 
ATOM     27  C   GLU d   4     979.365 271.253-955.273  0.00  0.00     0.241 C 
ATOM     28  O   GLU d   4     979.892 271.733-956.287  0.00  0.00    -0.271 OA
ATOM     29  H   SER d   5     979.176 271.434-953.288  0.00  0.00     0.163 HD
BRANCH  27  30
ATOM     30  CA  GLU d   4     978.467 270.042-955.334  0.00  0.00     0.177 C 
BRANCH  30  31
ATOM     31  N   GLU d   4     978.826 269.071-954.304  0.00  0.00    -0.346 N 
ATOM     32  C   PRO d   3     980.031 268.611-954.272  0.00  0.00     0.241 C 
ATOM     33  O   PRO d   3     980.854 268.994-955.103  0.00  0.00    -0.271 OA
ATOM     34  H   GLU d   4     978.142 268.764-953.628  0.00  0.00     0.163 HD
BRANCH  32  35
ATOM     35  CA  PRO d   3     980.429 267.588-953.195  0.00  0.00     0.179 C 
ATOM     36  N   PRO d   3     979.977 267.997-951.873  0.00  0.00    -0.337 N 
ATOM     37  C   ASN d   2     980.499 268.992-951.239  0.00  0.00     0.243 C 
ATOM     38  CD  PRO d   3     978.899 267.204-951.324  0.00  0.00     0.127 C 
ATOM     39  O   ASN d   2     981.414 269.622-951.768  0.00  0.00    -0.271 OA
ATOM     40  CG  PRO d   3     978.442 266.385-952.534  0.00  0.00     0.022 C 
ATOM     41  CB  PRO d   3     979.725 266.233-953.364  0.00  0.00     0.037 C 
BRANCH  37  42
ATOM     42  CA  ASN d   2     979.968 269.347-949.871  0.00  0.00     0.185 C 
BRANCH  42  43
ATOM     43  N   ASN d   2     978.508 269.386-949.871  0.00  0.00    -0.346 N 
ATOM     44  C   GLU d   1     977.904 270.172-950.696  0.00  0.00     0.242 C 
ATOM     45  O   GLU d   1     978.580 270.871-951.464  0.00  0.00    -0.271 OA
ATOM     46  H   ASN d   2     977.980 268.806-949.234  0.00  0.00     0.163 HD
BRANCH  44  47
ATOM     47  CA  GLU d   1     976.395 270.212-950.696  0.00  0.00     0.191 C 
BRANCH  47  48
ATOM     48  N   GLU d   1     975.836 268.863-950.696  0.00  0.00    -0.326 NA
ATOM     49  H   GLU d   1     976.463 267.984-950.696  0.00  0.00     0.180 HD
ENDBRANCH  47  48
BRANCH  47  50
ATOM     50  CB  GLU d   1     975.872 270.997-949.459  0.00  0.00     0.047 C 
BRANCH  50  51
ATOM     51  CG  GLU d   1     976.347 272.482-949.348  0.00  0.00     0.116 C 
BRANCH  51  52
ATOM     52  CD  GLU d   1     975.923 273.286-948.133  0.00  0.00     0.172 C 
ATOM     53  OE1 GLU d   1     975.195 272.784-947.255  0.00  0.00    -0.648 OA
ATOM     54  OE2 GLU d   1     976.353 274.456-948.061  0.00  0.00    -0.648 OA
ENDBRANCH  51  52
ENDBRANCH  50  51
ENDBRANCH  47  50
ENDBRANCH  44  47
ENDBRANCH  42  43
BRANCH  42  55
ATOM     55  CB  ASN d   2     980.460 268.324-948.806  0.00  0.00     0.137 C 
BRANCH  55  56
ATOM     56  CG  ASN d   2     979.997 268.548-947.363  0.00  0.00     0.217 C 
ATOM     57  ND2 ASN d   2     980.591 269.463-946.645  0.00  0.00    -0.370 N 
ATOM     58 21HD ASN d   2     980.110 269.636-945.758  0.00  0.00     0.159 HD
ATOM     59 22HD ASN d   2     981.293 270.035-947.114  0.00  0.00     0.159 HD
ATOM     60  OD1 ASN d   2     979.076 267.914-946.869  0.00  0.00    -0.274 OA
ENDBRANCH  55  56
ENDBRANCH  42  55
ENDBRANCH  37  42
ENDBRANCH  32  35
ENDBRANCH  30  31
BRANCH  30  61
ATOM     61  CB  GLU d   4     976.978 270.460-955.164  0.00  0.00     0.045 C 
BRANCH  61  62
ATOM     62  CG  GLU d   4     976.430 271.464-956.229  0.00  0.00     0.116 C 
BRANCH  62  63
ATOM     63  CD  GLU d   4     975.003 271.960-956.086  0.00  0.00     0.172 C 
ATOM     64  OE1 GLU d   4     974.277 271.562-955.155  0.00  0.00    -0.648 OA
ATOM     65  OE2 GLU d   4     974.614 272.790-956.934  0.00  0.00    -0.648 OA
ENDBRANCH  62  63
ENDBRANCH  61  62
ENDBRANCH  30  61
ENDBRANCH  27  30
ENDBRANCH  25  26
BRANCH  25  66
ATOM     66  CB  SER d   5     980.573 273.509-952.620  0.00  0.00     0.199 C 
BRANCH  66  67
ATOM     67  OG  SER d   5     981.305 272.630-951.759  0.00  0.00    -0.398 OA
ATOM     68  HG  SER d   5     980.816 271.805-951.709  0.00  0.00     0.209 HD
ENDBRANCH  66  67
ENDBRANCH  25  66
ENDBRANCH  22  25
ENDBRANCH  20  21
BRANCH  20  69
ATOM     69  CB  ASN d   6     984.256 269.940-954.303  0.00  0.00     0.137 C 
BRANCH  69  70
ATOM     70  CG  ASN d   6     984.365 269.820-952.780  0.00  0.00     0.217 C 
ATOM     71  ND2 ASN d   6     985.382 270.371-952.175  0.00  0.00    -0.370 N 
ATOM     72 21HD ASN d   6     985.281 270.366-951.157  0.00  0.00     0.159 HD
ATOM     73 22HD ASN d   6     986.020 270.920-952.751  0.00  0.00     0.159 HD
ATOM     74  OD1 ASN d   6     983.520 269.244-952.110  0.00  0.00    -0.274 OA
ENDBRANCH  69  70
ENDBRANCH  20  69
ENDBRANCH  17  20
ENDBRANCH  15  16
BRANCH  15  75
ATOM     75  CB  LEU d   7     981.475 269.696-958.888  0.00  0.00     0.038 C 
BRANCH  75  76
ATOM     76  CG  LEU d   7     981.403 268.217-958.421  0.00  0.00    -0.020 C 
ATOM     77  CD1 LEU d   7     980.213 267.511-959.086  0.00  0.00     0.009 C 
ATOM     78  CD2 LEU d   7     982.697 267.438-958.714  0.00  0.00     0.009 C 
ENDBRANCH  75  76
ENDBRANCH  15  75
ENDBRANCH  12  15
ENDBRANCH  10  11
BRANCH  10  79
ATOM     79  CB  ASP d   8     980.620 274.981-958.285  0.00  0.00     0.147 C 
BRANCH  79  80
ATOM     80  CG  ASP d   8     980.400 276.401-958.825  0.00  0.00     0.175 C 
ATOM     81  OD1 ASP d   8     980.463 276.600-960.056  0.00  0.00    -0.648 OA
ATOM     82  OD2 ASP d   8     980.208 277.327-958.009  0.00  0.00    -0.648 OA
ENDBRANCH  79  80
ENDBRANCH  10  79
ENDBRANCH   7  10
ENDBRANCH   5   6
BRANCH   5  83
ATOM     83  CB  GLU d   9     985.662 275.222-956.417  0.00  0.00     0.045 C 
BRANCH  83  84
ATOM     84  CG  GLU d   9     987.044 275.915-956.189  0.00  0.00     0.116 C 
BRANCH  84  85
ATOM     85  CD  GLU d   9     987.747 275.702-954.861  0.00  0.00     0.172 C 
ATOM     86  OE1 GLU d   9     987.226 275.011-953.964  0.00  0.00    -0.648 OA
ATOM     87  OE2 GLU d   9     988.866 276.240-954.730  0.00  0.00    -0.648 OA
ENDBRANCH  84  85
ENDBRANCH  83  84
ENDBRANCH   5  83
ENDBRANCH   1   5
BRANCH   3  88
ATOM     88  CA  HIS d  10     986.928 273.116-960.109  0.00  0.00     0.182 C 
BRANCH  88  89
ATOM     89  C   HIS d  10     986.560 273.681-961.460  0.00  0.00     0.241 C 
ATOM     90  O   HIS d  10     987.412 274.146-962.232  0.00  0.00    -0.271 OA
ATOM     91  N   VAL d  11     985.322 273.680-961.822  0.00  0.00    -0.346 N 
ATOM     92  H   VAL d  11     984.610 273.307-961.211  0.00  0.00     0.163 HD
BRANCH  91  93
ATOM     93  CA  VAL d  11     984.966 274.226-963.129  0.00  0.00     0.180 C 
BRANCH  93  94
ATOM     94  C   VAL d  11     985.430 275.657-963.261  0.00  0.00     0.241 C 
ATOM     95  O   VAL d  11     986.030 276.062-964.265  0.00  0.00    -0.271 OA
ATOM     96  N   GLN d  12     985.193 276.482-962.299  0.00  0.00    -0.346 N 
ATOM     97  H   GLN d  12     984.705 276.176-961.469  0.00  0.00     0.163 HD
BRANCH  96  98
ATOM     98  CA  GLN d  12     985.642 277.865-962.426  0.00  0.00     0.177 C 
BRANCH  98  99
ATOM     99  C   GLN d  12     987.131 277.933-962.665  0.00  0.00     0.241 C 
ATOM    100  O   GLN d  12     987.617 278.642-963.544  0.00  0.00    -0.271 OA
ATOM    101  N   ARG d  13     987.917 277.227-961.925  0.00  0.00    -0.346 N 
ATOM    102  H   ARG d  13     987.541 276.637-961.196  0.00  0.00     0.163 HD
BRANCH 101 103
ATOM    103  CA  ARG d  13     989.357 277.293-962.157  0.00  0.00     0.176 C 
BRANCH 103 104
ATOM    104  C   ARG d  13     989.692 276.921-963.582  0.00  0.00     0.241 C 
ATOM    105  O   ARG d  13     990.460 277.593-964.267  0.00  0.00    -0.271 OA
ATOM    106  N   VAL d  14     989.156 275.867-964.096  0.00  0.00    -0.346 N 
ATOM    107  H   VAL d  14     988.521 275.298-963.554  0.00  0.00     0.163 HD
BRANCH 106 108
ATOM    108  CA  VAL d  14     989.479 275.507-965.474  0.00  0.00     0.180 C 
BRANCH 108 109
ATOM    109  C   VAL d  14     989.148 276.637-966.419  0.00  0.00     0.241 C 
ATOM    110  O   VAL d  14     989.941 277.019-967.289  0.00  0.00    -0.271 OA
ATOM    111  N   MET d  15     988.003 277.223-966.316  0.00  0.00    -0.346 N 
ATOM    112  H   MET d  15     987.339 276.930-965.614  0.00  0.00     0.163 HD
BRANCH 111 113
ATOM    113  CA  MET d  15     987.682 278.316-967.230  0.00  0.00     0.177 C 
BRANCH 113 114
ATOM    114  C   MET d  15     988.712 279.415-967.143  0.00  0.00     0.241 C 
ATOM    115  O   MET d  15     989.214 279.926-968.156  0.00  0.00    -0.271 OA
ATOM    116  N   ARG d  16     989.082 279.837-965.981  0.00  0.00    -0.347 N 
ATOM    117  H   ARG d  16     988.688 279.437-965.142  0.00  0.00     0.163 HD
BRANCH 116 118
ATOM    118  CA  ARG d  16     990.078 280.901-965.898  0.00  0.00     0.162 C 
BRANCH 118 119
ATOM    119  C   ARG d  16     991.348 280.508-966.616  0.00  0.00     0.219 C 
ATOM    120  O   ARG d  16     991.462 279.432-967.197  0.00  0.00    -0.287 OA
ENDBRANCH 118 119
BRANCH 118 121
ATOM    121  CB  ARG d  16     990.348 281.219-964.400  0.00  0.00     0.035 C 
BRANCH 121 122
ATOM    122  CG  ARG d  16     991.174 282.508-964.128  0.00  0.00     0.023 C 
BRANCH 122 123
ATOM    123  CD  ARG d  16     991.424 282.728-962.627  0.00  0.00     0.138 C 
BRANCH 123 124
ATOM    124  NE  ARG d  16     992.201 283.987-962.427  0.00  0.00    -0.227 N 
ATOM    125  CZ  ARG d  16     992.593 284.469-961.252  0.00  0.00     0.665 C 
ATOM    126  NH1 ARG d  16     992.346 283.885-960.113  0.00  0.00    -0.235 N 
ATOM    127  NH2 ARG d  16     993.256 285.582-961.234  0.00  0.00    -0.235 N 
ATOM    128 11HH ARG d  16     991.820 283.012-960.197  0.00  0.00     0.174 HD
ATOM    129 12HH ARG d  16     992.681 284.321-959.252  0.00  0.00     0.174 HD
ATOM    130 21HH ARG d  16     993.441 286.025-962.136  0.00  0.00     0.174 HD
ATOM    131 22HH ARG d  16     993.547 285.937-960.322  0.00  0.00     0.174 HD
ATOM    132  HE  ARG d  16     992.478 284.568-963.224  0.00  0.00     0.177 HD
ENDBRANCH 123 124
ENDBRANCH 122 123
ENDBRANCH 121 122
ENDBRANCH 118 121
ENDBRANCH 116 118
ENDBRANCH 113 114
BRANCH 113 133
ATOM    133  CB  MET d  15     986.261 278.861-966.920  0.00  0.00     0.045 C 
BRANCH 133 134
ATOM    134  CG  MET d  15     985.099 277.863-967.111  0.00  0.00     0.076 C 
BRANCH 134 135
ATOM    135  SD  MET d  15     983.525 278.728-966.995  0.00  0.00    -0.173 SA
ATOM    136  CE  MET d  15     982.444 277.299-966.858  0.00  0.00     0.089 C 
ENDBRANCH 134 135
ENDBRANCH 133 134
ENDBRANCH 113 133
ENDBRANCH 111 113
ENDBRANCH 108 109
BRANCH 108 137
ATOM    137  CB  VAL d  14     988.707 274.190-965.880  0.00  0.00     0.009 C 
ATOM    138  CG1 VAL d  14     988.795 273.772-967.373  0.00  0.00     0.012 C 
ATOM    139  CG2 VAL d  14     989.140 272.938-965.080  0.00  0.00     0.012 C 
ENDBRANCH 108 137
ENDBRANCH 106 108
ENDBRANCH 103 104
BRANCH 103 140
ATOM    140  CB  ARG d  13     990.071 276.354-961.143  0.00  0.00     0.036 C 
BRANCH 140 141
ATOM    141  CG  ARG d  13     991.616 276.508-961.064  0.00  0.00     0.023 C 
BRANCH 141 142
ATOM    142  CD  ARG d  13     992.244 275.520-960.066  0.00  0.00     0.138 C 
BRANCH 142 143
ATOM    143  NE  ARG d  13     993.721 275.728-960.017  0.00  0.00    -0.227 N 
ATOM    144  CZ  ARG d  13     994.570 275.036-959.262  0.00  0.00     0.665 C 
ATOM    145  NH1 ARG d  13     994.206 274.072-958.465  0.00  0.00    -0.235 N 
ATOM    146  NH2 ARG d  13     995.829 275.335-959.320  0.00  0.00    -0.235 N 
ATOM    147 11HH ARG d  13     993.201 273.885-958.467  0.00  0.00     0.174 HD
ATOM    148 12HH ARG d  13     994.920 273.589-957.917  0.00  0.00     0.174 HD
ATOM    149 21HH ARG d  13     996.096 276.093-959.951  0.00  0.00     0.174 HD
ATOM    150 22HH ARG d  13     996.465 274.794-958.732  0.00  0.00     0.174 HD
ATOM    151  HE  ARG d  13     994.172 276.450-960.588  0.00  0.00     0.177 HD
ENDBRANCH 142 143
ENDBRANCH 141 142
ENDBRANCH 140 141
ENDBRANCH 103 140
ENDBRANCH 101 103
ENDBRANCH  98  99
BRANCH  98 152
ATOM    152  CB  GLN d  12     985.251 278.633-961.143  0.00  0.00     0.044 C 
BRANCH 152 153
ATOM    153  CG  GLN d  12     985.611 280.155-961.112  0.00  0.00     0.105 C 
BRANCH 153 154
ATOM    154  CD  GLN d  12     985.310 280.968-959.847  0.00  0.00     0.215 C 
ATOM    155  NE2 GLN d  12     984.743 280.391-958.818  0.00  0.00    -0.370 N 
ATOM    156 21HE GLN d  12     984.637 280.986-957.994  0.00  0.00     0.159 HD
ATOM    157 22HE GLN d  12     984.580 279.388-958.921  0.00  0.00     0.159 HD
ATOM    158  OE1 GLN d  12     985.611 282.149-959.770  0.00  0.00    -0.274 OA
ENDBRANCH 153 154
ENDBRANCH 152 153
ENDBRANCH  98 152
ENDBRANCH  96  98
ENDBRANCH  93  94
BRANCH  93 159
ATOM    159  CB  VAL d  11     983.405 274.119-963.347  0.00  0.00     0.009 C 
ATOM    160  CG1 VAL d  11     982.835 274.823-964.609  0.00  0.00     0.012 C 
ATOM    161  CG2 VAL d  11     982.881 272.665-963.420  0.00  0.00     0.012 C 
ENDBRANCH  93 159
ENDBRANCH  91  93
ENDBRANCH  88  89
BRANCH  88 162
ATOM    162  CB  HIS d  10     986.765 271.588-960.104  0.00  0.00     0.095 C 
BRANCH 162 163
ATOM    163  CG  HIS d  10     988.051 270.878-959.797  0.00  0.00     0.053 A 
ATOM    164  CD2 HIS d  10     988.432 270.542-958.505  0.00  0.00     0.116 A 
ATOM    165  NE2 HIS d  10     989.647 269.911-958.572  0.00  0.00    -0.359 N 
ATOM    166  CE1 HIS d  10     989.909 269.914-959.908  0.00  0.00     0.207 A 
ATOM    167  2HE HIS d  10     990.215 269.534-957.799  0.00  0.00     0.166 HD
ATOM    168  ND1 HIS d  10     989.002 270.472-960.730  0.00  0.00    -0.247 NA
ENDBRANCH 162 163
ENDBRANCH  88 162
ENDBRANCH   3  88
TORSDOF 68
