@<TRIPOS>MOLECULE
1-13
261 262 16              
SMALL
USER_CHARGES
@<TRIPOS>ATOM
1	   N	105.766	15.566	-74.984	N.3	1	SER1	-0.416	
2	  CA	106.396	16.883	-74.984	C.3	1	SER1	-0.025	
3	   C	107.902	16.762	-74.984	C.2	1	SER1	0.597	
4	   O	108.609	17.419	-75.748	O.2	1	SER1	-0.568	
5	  CB	105.893	17.735	-73.792	C.3	1	SER1	0.212	
6	  OG	106.358	17.252	-72.527	O.3	1	SER1	-0.655	
7	   H	106.344	14.654	-74.984	 H	1	SER1	0.272	
8	  HA	106.116	17.395	-75.923	 H	1	SER1	0.084	
9	 2HB	104.788	17.795	-73.781	 H	1	SER1	0.035	
10	 3HB	106.234	18.782	-73.912	 H	1	SER1	0.035	
11	  HG	105.994	16.372	-72.404	 H	1	SER1	0.428	
12	   N	108.464	15.945	-74.159	N.am	2	ASN2	-0.416	
13	  CA	109.919	15.828	-74.160	C.3	2	ASN2	0.014	
14	   C	110.430	15.445	-75.529	C.2	2	ASN2	0.597	
15	   O	111.377	16.026	-76.058	O.2	2	ASN2	-0.568	
16	  CB	110.357	14.781	-73.096	C.3	2	ASN2	-0.204	
17	  CG	109.907	15.029	-71.652	C.2	2	ASN2	0.713	
18	 ND2	110.549	15.911	-70.934	N.pl3	2	ASN2	-0.919	
19	 OD1	108.954	14.445	-71.158	O.2	2	ASN2	-0.593	
20	   H	107.906	15.394	-73.523	 H	2	ASN2	0.272	
21	  HA	110.350	16.817	-73.915	 H	2	ASN2	0.105	
22	 2HB	111.456	14.663	-73.100	 H	2	ASN2	0.080	
23	 3HB	109.974	13.781	-73.381	 H	2	ASN2	0.080	
24	1HD2	110.079	16.109	-70.047	 H	2	ASN2	0.420	
25	2HD2	111.280	16.444	-71.404	 H	2	ASN2	0.420	
26	   N	109.856	14.479	-76.162	N.am	3	PRO3	-0.255	
27	  CA	110.285	14.047	-77.484	C.3	3	PRO3	-0.027	
28	   C	109.942	15.090	-78.561	C.2	3	PRO3	0.590	
29	   O	110.784	15.429	-79.393	O.2	3	PRO3	-0.575	
30	  CB	109.510	12.731	-77.653	C.3	3	PRO3	-0.007	
31	  CG	108.237	12.952	-76.823	C.3	3	PRO3	0.019	
32	  CD	108.738	13.745	-75.613	C.3	3	PRO3	0.019	
33	  HA	111.363	13.869	-77.498	 H	3	PRO3	0.064	
34	 2HB	110.091	11.918	-77.213	 H	3	PRO3	0.025	
35	 3HB	109.299	12.494	-78.698	 H	3	PRO3	0.025	
36	 2HG	107.759	12.013	-76.531	 H	3	PRO3	0.021	
37	 3HG	107.531	13.561	-77.390	 H	3	PRO3	0.021	
38	 2HD	109.092	13.075	-74.826	 H	3	PRO3	0.039	
39	 3HD	107.977	14.422	-75.220	 H	3	PRO3	0.039	
40	   N	108.763	15.613	-78.593	N.am	4	GLU4	-0.516	
41	  CA	108.455	16.602	-79.622	C.3	4	GLU4	0.040	
42	   C	109.418	17.764	-79.561	C.2	4	GLU4	0.537	
43	   O	109.968	18.214	-80.576	O.2	4	GLU4	-0.582	
44	  CB	106.991	17.099	-79.451	C.3	4	GLU4	0.056	
45	  CG	106.497	18.131	-80.517	C.3	4	GLU4	0.014	
46	  CD	105.099	18.703	-80.373	C.2	4	GLU4	0.805	
47	 OE1	104.353	18.343	-79.441	O.co2	4	GLU4	-0.819	
48	 OE2	104.754	19.551	-81.221	O.co2	4	GLU4	-0.819	
49	   H	108.064	15.343	-77.916	 H	4	GLU4	0.294	
50	  HA	108.561	16.125	-80.613	 H	4	GLU4	0.111	
51	 2HB	106.863	17.547	-78.444	 H	4	GLU4	-0.017	
52	 3HB	106.297	16.237	-79.457	 H	4	GLU4	-0.017	
53	 2HG	106.556	17.712	-81.535	 H	4	GLU4	-0.043	
54	 3HG	107.134	19.030	-80.528	 H	4	GLU4	-0.043	
55	   N	109.674	18.303	-78.418	N.am	5	SER5	-0.416	
56	  CA	110.605	19.427	-78.360	C.3	5	SER5	-0.025	
57	   C	111.945	19.049	-78.946	C.2	5	SER5	0.597	
58	   O	112.532	19.773	-79.751	O.2	5	SER5	-0.568	
59	  CB	110.745	19.952	-76.910	C.3	5	SER5	0.212	
60	  OG	111.430	19.035	-76.049	O.3	5	SER5	-0.655	
61	   H	109.239	17.954	-77.577	 H	5	SER5	0.272	
62	  HA	110.198	20.240	-78.989	 H	5	SER5	0.084	
63	 2HB	109.757	20.199	-76.476	 H	5	SER5	0.035	
64	 3HB	111.302	20.910	-76.912	 H	5	SER5	0.035	
65	  HG	110.898	18.238	-75.998	 H	5	SER5	0.428	
66	   N	112.492	17.936	-78.592	N.am	6	ILE6	-0.416	
67	  CA	113.787	17.572	-79.159	C.3	6	ILE6	-0.060	
68	   C	113.728	17.537	-80.667	C.2	6	ILE6	0.597	
69	   O	114.592	18.080	-81.371	O.2	6	ILE6	-0.568	
70	  CB	114.315	16.205	-78.559	C.3	6	ILE6	0.130	
71	 CG1	114.332	16.142	-76.998	C.3	6	ILE6	-0.043	
72	 CG2	115.739	15.828	-79.075	C.3	6	ILE6	-0.320	
73	 CD1	114.528	14.741	-76.384	C.3	6	ILE6	-0.066	
74	   H	112.031	17.325	-77.933	 H	6	ILE6	0.272	
75	  HA	114.505	18.369	-78.892	 H	6	ILE6	0.087	
76	  HB	113.615	15.416	-78.903	 H	6	ILE6	0.019	
77	2HG1	113.369	16.514	-76.602	 H	6	ILE6	0.024	
78	3HG1	115.087	16.845	-76.594	 H	6	ILE6	0.024	
79	1HG2	115.792	15.731	-80.174	 H	6	ILE6	0.088	
80	2HG2	116.501	16.570	-78.773	 H	6	ILE6	0.088	
81	3HG2	116.077	14.846	-78.697	 H	6	ILE6	0.088	
82	1HD1	113.761	14.026	-76.738	 H	6	ILE6	0.019	
83	2HD1	115.517	14.309	-76.620	 H	6	ILE6	0.019	
84	3HD1	114.454	14.775	-75.281	 H	6	ILE6	0.019	
85	   N	112.748	16.925	-81.240	N.am	7	LEU7	-0.416	
86	  CA	112.690	16.892	-82.699	C.3	7	LEU7	-0.052	
87	   C	112.692	18.289	-83.271	C.2	7	LEU7	0.597	
88	   O	113.431	18.613	-84.213	O.2	7	LEU7	-0.568	
89	  CB	111.443	16.097	-83.179	C.3	7	LEU7	-0.110	
90	  CG	111.292	14.623	-82.712	C.3	7	LEU7	0.353	
91	 CD1	110.066	13.982	-83.377	C.3	7	LEU7	-0.412	
92	 CD2	112.542	13.776	-83.004	C.3	7	LEU7	-0.412	
93	   H	112.031	16.475	-80.689	 H	7	LEU7	0.272	
94	  HA	113.607	16.402	-83.073	 H	7	LEU7	0.092	
95	 2HB	111.420	16.114	-84.286	 H	7	LEU7	0.046	
96	 3HB	110.532	16.649	-82.874	 H	7	LEU7	0.046	
97	  HG	111.122	14.624	-81.615	 H	7	LEU7	-0.036	
98	1HD1	109.138	14.541	-83.154	 H	7	LEU7	0.100	
99	2HD1	110.163	13.936	-84.479	 H	7	LEU7	0.100	
100	3HD1	109.904	12.948	-83.021	 H	7	LEU7	0.100	
101	1HD2	112.818	13.792	-84.074	 H	7	LEU7	0.100	
102	2HD2	113.417	14.142	-82.433	 H	7	LEU7	0.100	
103	3HD2	112.405	12.720	-82.708	 H	7	LEU7	0.100	
104	   N	111.901	19.173	-82.764	N.am	8	ASP8	-0.516	
105	  CA	111.902	20.524	-83.318	C.3	8	ASP8	0.038	
106	   C	113.283	21.132	-83.261	C.2	8	ASP8	0.537	
107	   O	113.787	21.711	-84.236	O.2	8	ASP8	-0.582	
108	  CB	110.870	21.419	-82.576	C.3	8	ASP8	-0.030	
109	  CG	110.727	22.850	-83.116	C.2	8	ASP8	0.799	
110	 OD1	110.801	23.045	-84.346	O.co2	8	ASP8	-0.801	
111	 OD2	110.584	23.784	-82.300	O.co2	8	ASP8	-0.801	
112	   H	111.290	18.934	-81.997	 H	8	ASP8	0.294	
113	  HA	111.615	20.462	-84.385	 H	8	ASP8	0.088	
114	 2HB	111.132	21.489	-81.504	 H	8	ASP8	-0.012	
115	 3HB	109.866	20.967	-82.608	 H	8	ASP8	-0.012	
116	   N	113.959	21.046	-82.166	N.am	9	GLU9	-0.516	
117	  CA	115.295	21.633	-82.111	C.3	9	GLU9	0.040	
118	   C	116.183	21.058	-83.187	C.2	9	GLU9	0.537	
119	   O	116.886	21.776	-83.913	O.2	9	GLU9	-0.582	
120	  CB	115.917	21.392	-80.706	C.3	9	GLU9	0.056	
121	  CG	117.335	22.010	-80.477	C.3	9	GLU9	0.014	
122	  CD	118.025	21.760	-79.149	C.2	9	GLU9	0.805	
123	 OE1	117.467	21.097	-78.252	O.co2	9	GLU9	-0.819	
124	 OE2	119.171	22.237	-79.017	O.co2	9	GLU9	-0.819	
125	   H	113.571	20.579	-81.359	 H	9	GLU9	0.294	
126	  HA	115.210	22.721	-82.286	 H	9	GLU9	0.111	
127	 2HB	115.972	20.303	-80.503	 H	9	GLU9	-0.017	
128	 3HB	115.240	21.782	-79.921	 H	9	GLU9	-0.017	
129	 2HG	117.321	23.103	-80.616	 H	9	GLU9	-0.043	
130	 3HG	118.062	21.626	-81.211	 H	9	GLU9	-0.043	
131	   N	116.212	19.779	-83.357	N.am	10	HIS10	-0.416	
132	  CA	117.071	19.222	-84.398	C.3	10	HIS10	-0.058	
133	   C	116.735	19.805	-85.748	C.2	10	HIS10	0.597	
134	   O	117.610	20.224	-86.520	O.2	10	HIS10	-0.568	
135	  CB	116.827	17.704	-84.393	C.3	10	HIS10	-0.007	
136	  CG	118.073	16.926	-84.085	C.2	10	HIS10	0.187	
137	 CD2	118.436	16.571	-82.793	C.2	10	HIS10	-0.221	
138	 ND1	119.002	16.471	-85.018	N.2	10	HIS10	-0.543	
139	 CE1	119.878	15.865	-84.195	C.2	10	HIS10	0.163	
140	 NE2	119.616	15.876	-82.860	N.pl3	10	HIS10	-0.280	
141	   H	115.649	19.173	-82.778	 H	10	HIS10	0.272	
142	  HA	118.108	19.525	-84.173	 H	10	HIS10	0.136	
143	 2HB	116.442	17.357	-85.373	 H	10	HIS10	0.037	
144	 3HB	116.054	17.407	-83.653	 H	10	HIS10	0.037	
145	 2HD	117.863	16.817	-81.903	 H	10	HIS10	0.186	
146	 1HE	120.745	15.398	-84.642	 H	10	HIS10	0.144	
147	 2HE	120.162	15.469	-82.087	 H	10	HIS10	0.334	
148	   N	115.498	19.870	-86.111	N.am	11	VAL11	-0.416	
149	  CA	115.172	20.434	-87.418	C.3	11	VAL11	-0.087	
150	   C	115.712	21.838	-87.550	C.2	11	VAL11	0.597	
151	   O	116.333	22.211	-88.553	O.2	11	VAL11	-0.568	
152	  CB	113.607	20.410	-87.637	C.3	11	VAL11	0.299	
153	 CG1	113.077	21.144	-88.899	C.3	11	VAL11	-0.319	
154	 CG2	113.007	18.986	-87.710	C.3	11	VAL11	-0.319	
155	   H	114.767	19.535	-85.500	 H	11	VAL11	0.272	
156	  HA	115.660	19.825	-88.200	 H	11	VAL11	0.097	
157	  HB	113.146	20.915	-86.761	 H	11	VAL11	-0.030	
158	1HG1	113.493	20.729	-89.836	 H	11	VAL11	0.079	
159	2HG1	111.974	21.095	-88.981	 H	11	VAL11	0.079	
160	3HG1	113.312	22.225	-88.890	 H	11	VAL11	0.079	
161	1HG2	113.265	18.384	-86.819	 H	11	VAL11	0.079	
162	2HG2	111.900	19.008	-87.752	 H	11	VAL11	0.079	
163	3HG2	113.359	18.426	-88.597	 H	11	VAL11	0.079	
164	   N	115.519	22.675	-86.588	N.am	12	GLN12	-0.416	
165	  CA	116.040	24.032	-86.715	C.3	12	GLN12	-0.003	
166	   C	117.531	24.021	-86.953	C.2	12	GLN12	0.597	
167	   O	118.055	24.702	-87.832	O.2	12	GLN12	-0.568	
168	  CB	115.691	24.819	-85.432	C.3	12	GLN12	-0.004	
169	  CG	116.131	26.320	-85.401	C.3	12	GLN12	-0.064	
170	  CD	115.872	27.148	-84.136	C.2	12	GLN12	0.695	
171	 NE2	115.276	26.602	-83.107	N.pl3	12	GLN12	-0.941	
172	 OE1	116.236	28.311	-84.058	O.2	12	GLN12	-0.609	
173	   H	115.015	22.395	-85.758	 H	12	GLN12	0.272	
174	  HA	115.565	24.515	-87.589	 H	12	GLN12	0.085	
175	 2HB	116.140	24.294	-84.563	 H	12	GLN12	0.017	
176	 3HB	114.596	24.770	-85.268	 H	12	GLN12	0.017	
177	 2HG	115.681	26.865	-86.251	 H	12	GLN12	0.035	
178	 3HG	117.220	26.404	-85.566	 H	12	GLN12	0.035	
179	1HE2	115.201	27.201	-82.283	 H	12	GLN12	0.425	
180	2HE2	115.059	25.609	-83.210	 H	12	GLN12	0.425	
181	   N	118.278	23.273	-86.212	N.am	13	ARG13	-0.348	
182	  CA	119.719	23.263	-86.444	C.3	13	ARG13	-0.264	
183	   C	120.035	22.874	-87.869	C.2	13	ARG13	0.734	
184	   O	120.838	23.504	-88.553	O.2	13	ARG13	-0.589	
185	  CB	120.382	22.287	-85.430	C.3	13	ARG13	-0.001	
186	  CG	121.933	22.358	-85.349	C.3	13	ARG13	0.039	
187	  CD	122.507	21.339	-84.352	C.3	13	ARG13	0.049	
188	  NE	123.993	21.468	-84.302	N.pl3	13	ARG13	-0.530	
189	  CZ	124.804	20.732	-83.547	C.cat	13	ARG13	0.808	
190	 NH1	124.388	19.788	-82.750	N.pl3	13	ARG13	-0.863	
191	 NH2	126.077	20.964	-83.604	N.pl3	13	ARG13	-0.863	
192	   H	117.871	22.704	-85.484	 H	13	ARG13	0.275	
193	  HA	120.099	24.290	-86.285	 H	13	ARG13	0.156	
194	 2HB	120.061	21.252	-85.669	 H	13	ARG13	0.033	
195	 3HB	119.967	22.476	-84.419	 H	13	ARG13	0.033	
196	 2HG	122.236	23.388	-85.070	 H	13	ARG13	0.029	
197	 3HG	122.374	22.179	-86.351	 H	13	ARG13	0.029	
198	 2HD	122.208	20.313	-84.661	 H	13	ARG13	0.069	
199	 3HD	122.059	21.508	-83.349	 H	13	ARG13	0.069	
200	  HE	124.482	22.165	-84.873	 H	13	ARG13	0.346	
201	1HH1	123.374	19.655	-82.753	 H	13	ARG13	0.448	
202	2HH1	125.075	19.268	-82.201	 H	13	ARG13	0.448	
203	1HH2	126.384	21.706	-84.235	 H	13	ARG13	0.448	
204	2HH2	126.683	20.389	-83.016	 H	13	ARG13	0.448	
205	   N	119.444	21.850	-88.383	N.am	14	VAL14	-0.416	
206	  CA	119.749	21.474	-89.761	C.3	14	VAL14	-0.087	
207	   C	119.478	22.620	-90.706	C.2	14	VAL14	0.597	
208	   O	120.291	22.959	-91.576	O.2	14	VAL14	-0.568	
209	  CB	118.907	20.200	-90.168	C.3	14	VAL14	0.299	
210	 CG1	118.974	19.778	-91.661	C.3	14	VAL14	-0.319	
211	 CG2	119.273	18.926	-89.368	C.3	14	VAL14	-0.319	
212	   H	118.780	21.315	-87.841	 H	14	VAL14	0.272	
213	  HA	120.826	21.240	-89.836	 H	14	VAL14	0.097	
214	  HB	117.842	20.428	-89.951	 H	14	VAL14	-0.030	
215	1HG1	120.004	19.546	-91.990	 H	14	VAL14	0.079	
216	2HG1	118.353	18.886	-91.874	 H	14	VAL14	0.079	
217	3HG1	118.585	20.562	-92.339	 H	14	VAL14	0.079	
218	1HG2	119.194	19.089	-88.277	 H	14	VAL14	0.079	
219	2HG2	118.591	18.085	-89.600	 H	14	VAL14	0.079	
220	3HG2	120.303	18.581	-89.574	 H	14	VAL14	0.079	
221	   N	118.366	23.266	-90.604	N.am	15	MET15	-0.416	
222	  CA	118.104	24.374	-91.517	C.3	15	MET15	-0.024	
223	   C	119.191	25.418	-91.430	C.2	15	MET15	0.597	
224	   O	119.720	25.901	-92.442	O.2	15	MET15	-0.568	
225	  CB	116.714	24.994	-91.208	C.3	15	MET15	0.034	
226	  CG	115.500	24.059	-91.399	C.3	15	MET15	0.002	
227	  SD	113.974	25.007	-91.284	S.3	15	MET15	-0.274	
228	  CE	112.819	23.637	-91.148	C.3	15	MET15	-0.054	
229	   H	117.687	23.008	-89.902	 H	15	MET15	0.272	
230	  HA	118.109	23.986	-92.553	 H	15	MET15	0.088	
231	 2HB	116.558	25.882	-91.850	 H	15	MET15	0.024	
232	 3HB	116.699	25.388	-90.172	 H	15	MET15	0.024	
233	 2HG	115.502	23.272	-90.622	 H	15	MET15	0.044	
234	 3HG	115.536	23.541	-92.376	 H	15	MET15	0.044	
235	 1HE	112.926	22.942	-92.000	 H	15	MET15	0.068	
236	 2HE	112.999	23.073	-90.215	 H	15	MET15	0.068	
237	 3HE	111.780	24.007	-91.131	 H	15	MET15	0.068	
238	   N	119.582	25.818	-90.268	N.am	16	ARG16	-0.348	
239	  CA	120.633	26.828	-90.184	C.3	16	ARG16	-0.264	
240	   C	121.881	26.369	-90.901	C.2	16	ARG16	0.734	
241	   O	121.938	25.288	-91.482	O.2	16	ARG16	-0.589	
242	  CB	120.919	27.131	-88.686	C.3	16	ARG16	-0.001	
243	  CG	121.812	28.374	-88.413	C.3	16	ARG16	0.039	
244	  CD	122.073	28.580	-86.912	C.3	16	ARG16	0.049	
245	  NE	122.915	29.796	-86.711	N.pl3	16	ARG16	-0.530	
246	  CZ	123.331	30.257	-85.535	C.cat	16	ARG16	0.808	
247	 NH1	123.053	29.686	-84.397	N.pl3	16	ARG16	-0.863	
248	 NH2	124.053	31.333	-85.517	N.pl3	16	ARG16	-0.863	
249	   H	119.167	25.440	-89.428	 H	16	ARG16	0.275	
250	  HA	120.272	27.741	-90.694	 H	16	ARG16	0.156	
251	 2HB	121.369	26.230	-88.220	 H	16	ARG16	0.033	
252	 3HB	119.956	27.263	-88.152	 H	16	ARG16	0.033	
253	 2HG	121.328	29.272	-88.850	 H	16	ARG16	0.029	
254	 3HG	122.781	28.270	-88.942	 H	16	ARG16	0.029	
255	 2HD	122.575	27.677	-86.499	 H	16	ARG16	0.069	
256	 3HD	121.104	28.674	-86.376	 H	16	ARG16	0.069	
257	  HE	123.223	30.362	-87.508	 H	16	ARG16	0.346	
258	1HH1	122.482	28.842	-84.481	 H	16	ARG16	0.448	
259	2HH1	123.411	30.103	-83.536	 H	16	ARG16	0.448	
260	1HH2	124.262	31.766	-86.419	 H	16	ARG16	0.448	
261	2HH2	124.362	31.672	-84.604	 H	16	ARG16	0.448	
@<TRIPOS>BOND
1 1 2 1
2 1 7 1
3 2 3 1
4 2 5 1
5 2 8 1
6 3 4 2
7 3 12 1
8 5 6 1
9 5 9 1
10 5 10 1
11 6 11 1
12 12 13 1
13 12 20 1
14 13 14 1
15 13 16 1
16 13 21 1
17 14 15 2
18 14 26 1
19 16 17 1
20 17 18 1
21 17 19 2
22 16 22 1
23 16 23 1
24 18 24 1
25 18 25 1
26 26 27 1
27 26 32 1
28 27 28 1
29 27 30 1
30 27 33 1
31 28 29 2
32 28 40 1
33 30 31 1
34 31 32 1
35 30 34 1
36 30 35 1
37 31 36 1
38 31 37 1
39 32 38 1
40 32 39 1
41 40 41 1
42 40 49 1
43 41 42 1
44 41 44 1
45 41 50 1
46 42 43 2
47 42 55 1
48 44 45 1
49 45 46 1
50 46 47 2
51 46 48 1
52 44 51 1
53 44 52 1
54 45 53 1
55 45 54 1
56 55 56 1
57 55 61 1
58 56 57 1
59 56 59 1
60 56 62 1
61 57 58 2
62 57 66 1
63 59 60 1
64 59 63 1
65 59 64 1
66 60 65 1
67 66 67 1
68 66 74 1
69 67 68 1
70 67 70 1
71 67 75 1
72 68 69 2
73 68 85 1
74 70 71 1
75 70 72 1
76 71 73 1
77 70 76 1
78 71 77 1
79 71 78 1
80 72 79 1
81 72 80 1
82 72 81 1
83 73 82 1
84 73 83 1
85 73 84 1
86 85 86 1
87 85 93 1
88 86 87 1
89 86 89 1
90 86 94 1
91 87 88 2
92 87 104 1
93 89 90 1
94 90 91 1
95 90 92 1
96 89 95 1
97 89 96 1
98 90 97 1
99 91 98 1
100 91 99 1
101 91 100 1
102 92 101 1
103 92 102 1
104 92 103 1
105 104 105 1
106 104 112 1
107 105 106 1
108 105 108 1
109 105 113 1
110 106 107 2
111 106 116 1
112 108 109 1
113 109 110 2
114 109 111 1
115 108 114 1
116 108 115 1
117 116 117 1
118 116 125 1
119 117 118 1
120 117 120 1
121 117 126 1
122 118 119 2
123 118 131 1
124 120 121 1
125 121 122 1
126 122 123 2
127 122 124 1
128 120 127 1
129 120 128 1
130 121 129 1
131 121 130 1
132 131 132 1
133 131 141 1
134 132 133 1
135 132 135 1
136 132 142 1
137 133 134 2
138 133 148 1
139 135 136 1
140 136 137 2
141 137 140 1
142 136 138 1
143 138 139 2
144 139 140 1
145 135 143 1
146 135 144 1
147 137 145 1
148 139 146 1
149 140 147 1
150 148 149 1
151 148 155 1
152 149 150 1
153 149 152 1
154 149 156 1
155 150 151 2
156 150 164 1
157 152 153 1
158 152 154 1
159 152 157 1
160 153 158 1
161 153 159 1
162 153 160 1
163 154 161 1
164 154 162 1
165 154 163 1
166 164 165 1
167 164 173 1
168 165 166 1
169 165 168 1
170 165 174 1
171 166 167 2
172 166 181 1
173 168 169 1
174 169 170 1
175 170 171 1
176 170 172 2
177 168 175 1
178 168 176 1
179 169 177 1
180 169 178 1
181 171 179 1
182 171 180 1
183 181 182 1
184 181 192 1
185 182 183 1
186 182 185 1
187 182 193 1
188 183 184 2
189 183 205 1
190 185 186 1
191 186 187 1
192 187 188 1
193 188 189 1
194 189 190 2
195 189 191 1
196 185 194 1
197 185 195 1
198 186 196 1
199 186 197 1
200 187 198 1
201 187 199 1
202 188 200 1
203 190 201 1
204 190 202 1
205 191 203 1
206 191 204 1
207 205 206 1
208 205 212 1
209 206 207 1
210 206 209 1
211 206 213 1
212 207 208 2
213 207 221 1
214 209 210 1
215 209 211 1
216 209 214 1
217 210 215 1
218 210 216 1
219 210 217 1
220 211 218 1
221 211 219 1
222 211 220 1
223 221 222 1
224 221 229 1
225 222 223 1
226 222 225 1
227 222 230 1
228 223 224 2
229 223 238 1
230 225 226 1
231 226 227 1
232 227 228 1
233 225 231 1
234 225 232 1
235 226 233 1
236 226 234 1
237 228 235 1
238 228 236 1
239 228 237 1
240 238 239 1
241 238 249 1
242 239 240 1
243 239 242 1
244 239 250 1
245 240 241 2
246 242 243 1
247 243 244 1
248 244 245 1
249 245 246 1
250 246 247 2
251 246 248 1
252 242 251 1
253 242 252 1
254 243 253 1
255 243 254 1
256 244 255 1
257 244 256 1
258 245 257 1
259 247 258 1
260 247 259 1
261 248 260 1
262 248 261 1
@<TRIPOS>SUBSTRUCTURE
1	SER1	1	RESIDUE	1 ****	SER
2	ASN2	12	RESIDUE	1 ****	ASN
3	PRO3	26	RESIDUE	1 ****	PRO
4	GLU4	40	RESIDUE	1 ****	GLU
5	SER5	55	RESIDUE	1 ****	SER
6	ILE6	66	RESIDUE	1 ****	ILE
7	LEU7	85	RESIDUE	1 ****	LEU
8	ASP8	104	RESIDUE	1 ****	ASP
9	GLU9	116	RESIDUE	1 ****	GLU
10	HIS10	131	RESIDUE	1 ****	HIS
11	VAL11	148	RESIDUE	1 ****	VAL
12	GLN12	164	RESIDUE	1 ****	GLN
13	ARG13	181	RESIDUE	1 ****	ARG
14	VAL14	205	RESIDUE	1 ****	VAL
15	MET15	221	RESIDUE	1 ****	MET
16	ARG16	238	RESIDUE	1 ****	ARG
