@<TRIPOS>MOLECULE
16-9
262 264 16              
SMALL
USER_CHARGES
@<TRIPOS>ATOM
1	   N	2561.904	785.862	-2675.112	N.3	1	GLU1	-0.516	
2	  CA	2562.463	787.211	-2675.112	C.3	1	GLU1	0.040	
3	   C	2563.972	787.171	-2675.112	C.2	1	GLU1	0.537	
4	   O	2564.648	787.870	-2675.881	O.2	1	GLU1	-0.582	
5	  CB	2561.940	787.996	-2673.875	C.3	1	GLU1	0.056	
6	  CG	2562.415	789.481	-2673.764	C.3	1	GLU1	0.014	
7	  CD	2561.991	790.285	-2672.549	C.2	1	GLU1	0.805	
8	 OE1	2561.263	789.783	-2671.671	O.co2	1	GLU1	-0.819	
9	 OE2	2562.421	791.455	-2672.477	O.co2	1	GLU1	-0.819	
10	   H	2562.531	784.983	-2675.112	 H	1	GLU1	0.294	
11	  HA	2562.137	787.729	-2676.032	 H	1	GLU1	0.111	
12	 2HB	2562.229	787.465	-2672.945	 H	1	GLU1	-0.017	
13	 3HB	2560.833	787.986	-2673.862	 H	1	GLU1	-0.017	
14	 2HG	2562.105	790.066	-2674.645	 H	1	GLU1	-0.043	
15	 3HG	2563.515	789.548	-2673.735	 H	1	GLU1	-0.043	
16	   N	2564.576	786.385	-2674.287	N.am	2	ASN2	-0.416	
17	  CA	2566.036	786.346	-2674.287	C.3	2	ASN2	0.014	
18	   C	2566.567	785.990	-2675.655	C.2	2	ASN2	0.597	
19	   O	2567.482	786.621	-2676.183	O.2	2	ASN2	-0.568	
20	  CB	2566.527	785.323	-2673.222	C.3	2	ASN2	-0.204	
21	  CG	2566.064	785.547	-2671.779	C.2	2	ASN2	0.713	
22	 ND2	2566.658	786.462	-2671.061	N.pl3	2	ASN2	-0.919	
23	 OD1	2565.143	784.913	-2671.285	O.2	2	ASN2	-0.593	
24	   H	2564.048	785.805	-2673.650	 H	2	ASN2	0.272	
25	  HA	2566.413	787.356	-2674.041	 H	2	ASN2	0.105	
26	 2HB	2567.632	785.264	-2673.225	 H	2	ASN2	0.080	
27	 3HB	2566.198	784.305	-2673.508	 H	2	ASN2	0.080	
28	1HD2	2566.177	786.635	-2670.174	 H	2	ASN2	0.420	
29	2HD2	2567.360	787.033	-2671.530	 H	2	ASN2	0.420	
30	   N	2566.046	784.995	-2676.290	N.am	3	PRO3	-0.255	
31	  CA	2566.498	784.586	-2677.611	C.3	3	PRO3	-0.027	
32	   C	2566.100	785.610	-2678.688	C.2	3	PRO3	0.590	
33	   O	2566.924	785.993	-2679.519	O.2	3	PRO3	-0.575	
34	  CB	2565.793	783.232	-2677.781	C.3	3	PRO3	-0.007	
35	  CG	2564.510	783.384	-2676.951	C.3	3	PRO3	0.019	
36	  CD	2564.967	784.203	-2675.741	C.3	3	PRO3	0.019	
37	  HA	2567.584	784.466	-2677.624	 H	3	PRO3	0.064	
38	 2HB	2566.416	782.450	-2677.340	 H	3	PRO3	0.025	
39	 3HB	2565.595	782.983	-2678.826	 H	3	PRO3	0.025	
40	 2HG	2564.082	782.422	-2676.660	 H	3	PRO3	0.021	
41	 3HG	2563.773	783.955	-2677.518	 H	3	PRO3	0.021	
42	 2HD	2565.356	783.553	-2674.953	 H	3	PRO3	0.039	
43	 3HD	2564.171	784.838	-2675.348	 H	3	PRO3	0.039	
44	   N	2564.895	786.070	-2678.721	N.am	4	GLU4	-0.516	
45	  CA	2564.536	787.041	-2679.750	C.3	4	GLU4	0.040	
46	   C	2565.435	788.252	-2679.689	C.2	4	GLU4	0.537	
47	   O	2565.962	788.731	-2680.703	O.2	4	GLU4	-0.582	
48	  CB	2563.048	787.460	-2679.581	C.3	4	GLU4	0.056	
49	  CG	2562.500	788.464	-2680.646	C.3	4	GLU4	0.014	
50	  CD	2561.074	788.961	-2680.503	C.2	4	GLU4	0.805	
51	 OE1	2560.347	788.563	-2679.573	O.co2	4	GLU4	-0.819	
52	 OE2	2560.685	789.790	-2681.352	O.co2	4	GLU4	-0.819	
53	   H	2564.211	785.763	-2678.044	 H	4	GLU4	0.294	
54	  HA	2564.668	786.571	-2680.742	 H	4	GLU4	0.111	
55	 2HB	2562.895	787.900	-2678.574	 H	4	GLU4	-0.017	
56	 3HB	2562.400	786.562	-2679.587	 H	4	GLU4	-0.017	
57	 2HG	2562.582	788.049	-2681.665	 H	4	GLU4	-0.043	
58	 3HG	2563.089	789.396	-2680.657	 H	4	GLU4	-0.043	
59	   N	2565.662	788.804	-2678.546	N.am	5	SER5	-0.416	
60	  CA	2566.532	789.975	-2678.487	C.3	5	SER5	-0.025	
61	   C	2567.891	789.669	-2679.072	C.2	5	SER5	0.597	
62	   O	2568.439	790.423	-2679.877	O.2	5	SER5	-0.568	
63	  CB	2566.644	790.508	-2677.036	C.3	5	SER5	0.212	
64	  OG	2567.375	789.628	-2676.175	O.3	5	SER5	-0.655	
65	   H	2565.245	788.433	-2677.704	 H	5	SER5	0.272	
66	  HA	2566.083	790.766	-2679.116	 H	5	SER5	0.084	
67	 2HB	2565.644	790.702	-2676.603	 H	5	SER5	0.035	
68	 3HB	2567.149	791.493	-2677.038	 H	5	SER5	0.035	
69	  HG	2566.885	788.803	-2676.125	 H	5	SER5	0.428	
70	   N	2568.495	788.586	-2678.718	N.am	6	ILE6	-0.416	
71	  CA	2569.809	788.291	-2679.284	C.3	6	ILE6	-0.060	
72	   C	2569.751	788.253	-2680.792	C.2	6	ILE6	0.597	
73	   O	2570.586	788.840	-2681.495	O.2	6	ILE6	-0.568	
74	  CB	2570.408	786.954	-2678.683	C.3	6	ILE6	0.130	
75	 CG1	2570.427	786.892	-2677.123	C.3	6	ILE6	-0.043	
76	 CG2	2571.849	786.652	-2679.198	C.3	6	ILE6	-0.320	
77	 CD1	2570.696	785.503	-2676.507	C.3	6	ILE6	-0.066	
78	   H	2568.066	787.952	-2678.059	 H	6	ILE6	0.272	
79	  HA	2570.483	789.125	-2679.016	 H	6	ILE6	0.087	
80	  HB	2569.750	786.128	-2679.028	 H	6	ILE6	0.019	
81	2HG1	2569.445	787.212	-2676.727	 H	6	ILE6	0.024	
82	3HG1	2571.143	787.634	-2676.718	 H	6	ILE6	0.024	
83	1HG2	2571.908	786.558	-2680.297	 H	6	ILE6	0.088	
84	2HG2	2572.571	787.434	-2678.896	 H	6	ILE6	0.088	
85	3HG2	2572.239	785.690	-2678.820	 H	6	ILE6	0.088	
86	1HD1	2569.967	784.749	-2676.862	 H	6	ILE6	0.019	
87	2HD1	2571.706	785.124	-2676.743	 H	6	ILE6	0.019	
88	3HD1	2570.619	785.533	-2675.405	 H	6	ILE6	0.019	
89	   N	2568.805	787.590	-2681.365	N.am	7	LEU7	-0.416	
90	  CA	2568.750	787.554	-2682.823	C.3	7	LEU7	-0.052	
91	   C	2568.678	788.949	-2683.396	C.2	7	LEU7	0.597	
92	   O	2569.399	789.311	-2684.339	O.2	7	LEU7	-0.568	
93	  CB	2567.547	786.694	-2683.304	C.3	7	LEU7	-0.110	
94	  CG	2567.474	785.214	-2682.837	C.3	7	LEU7	0.353	
95	 CD1	2566.284	784.509	-2683.503	C.3	7	LEU7	-0.412	
96	 CD2	2568.767	784.435	-2683.129	C.3	7	LEU7	-0.412	
97	   H	2568.113	787.103	-2680.814	 H	7	LEU7	0.272	
98	  HA	2569.692	787.113	-2683.198	 H	7	LEU7	0.092	
99	 2HB	2567.524	786.710	-2684.412	 H	7	LEU7	0.046	
100	 3HB	2566.607	787.197	-2683.000	 H	7	LEU7	0.046	
101	  HG	2567.304	785.206	-2681.740	 H	7	LEU7	-0.036	
102	1HD1	2565.327	785.018	-2683.280	 H	7	LEU7	0.100	
103	2HD1	2566.383	784.468	-2684.604	 H	7	LEU7	0.100	
104	3HD1	2566.177	783.468	-2683.147	 H	7	LEU7	0.100	
105	1HD2	2569.042	784.465	-2684.199	 H	7	LEU7	0.100	
106	2HD2	2569.621	784.846	-2682.557	 H	7	LEU7	0.100	
107	3HD2	2568.686	783.372	-2682.833	 H	7	LEU7	0.100	
108	   N	2567.842	789.790	-2682.891	N.am	8	ASP8	-0.516	
109	  CA	2567.772	791.139	-2683.445	C.3	8	ASP8	0.038	
110	   C	2569.119	791.818	-2683.388	C.2	8	ASP8	0.537	
111	   O	2569.592	792.423	-2684.363	O.2	8	ASP8	-0.582	
112	  CB	2566.694	791.979	-2682.704	C.3	8	ASP8	-0.030	
113	  CG	2566.476	793.400	-2683.245	C.2	8	ASP8	0.799	
114	 OD1	2566.541	793.598	-2684.476	O.co2	8	ASP8	-0.801	
115	 OD2	2566.285	794.326	-2682.430	O.co2	8	ASP8	-0.801	
116	   H	2567.244	789.520	-2682.123	 H	8	ASP8	0.294	
117	  HA	2567.489	791.061	-2684.512	 H	8	ASP8	0.088	
118	 2HB	2566.951	792.063	-2681.632	 H	8	ASP8	-0.012	
119	 3HB	2565.715	791.475	-2682.736	 H	8	ASP8	-0.012	
120	   N	2569.799	791.769	-2682.293	N.am	9	GLU9	-0.516	
121	  CA	2571.102	792.426	-2682.238	C.3	9	GLU9	0.040	
122	   C	2572.020	791.897	-2683.314	C.2	9	GLU9	0.537	
123	   O	2572.683	792.651	-2684.040	O.2	9	GLU9	-0.582	
124	  CB	2571.736	792.219	-2680.833	C.3	9	GLU9	0.056	
125	  CG	2573.119	792.910	-2680.604	C.3	9	GLU9	0.014	
126	  CD	2573.821	792.697	-2679.276	C.2	9	GLU9	0.805	
127	 OE1	2573.299	792.007	-2678.379	O.co2	9	GLU9	-0.819	
128	 OE2	2574.940	793.235	-2679.145	O.co2	9	GLU9	-0.819	
129	   H	2569.435	791.283	-2681.485	 H	9	GLU9	0.294	
130	  HA	2570.960	793.508	-2682.414	 H	9	GLU9	0.111	
131	 2HB	2571.848	791.134	-2680.629	 H	9	GLU9	-0.017	
132	 3HB	2571.039	792.573	-2680.048	 H	9	GLU9	-0.017	
133	 2HG	2573.047	794.001	-2680.744	 H	9	GLU9	-0.043	
134	 3HG	2573.865	792.565	-2681.338	 H	9	GLU9	-0.043	
135	   N	2572.115	790.622	-2683.483	N.am	10	HIS10	-0.416	
136	  CA	2573.003	790.110	-2684.523	C.3	10	HIS10	-0.058	
137	   C	2572.636	790.674	-2685.875	C.2	10	HIS10	0.597	
138	   O	2573.489	791.138	-2686.647	O.2	10	HIS10	-0.568	
139	  CB	2572.838	788.581	-2684.518	C.3	10	HIS10	-0.007	
140	  CG	2574.124	787.870	-2684.209	C.2	10	HIS10	0.187	
141	 CD2	2574.505	787.536	-2682.917	C.2	10	HIS10	-0.221	
142	 ND1	2575.075	787.463	-2685.142	N.2	10	HIS10	-0.543	
143	 CE1	2575.981	786.905	-2684.319	C.2	10	HIS10	0.163	
144	 NE2	2575.719	786.903	-2682.984	N.pl3	10	HIS10	-0.280	
145	   H	2571.585	789.987	-2682.904	 H	10	HIS10	0.272	
146	  HA	2574.022	790.467	-2684.299	 H	10	HIS10	0.136	
147	 2HB	2572.472	788.214	-2685.497	 H	10	HIS10	0.037	
148	 3HB	2572.083	788.245	-2683.777	 H	10	HIS10	0.037	
149	 2HD	2573.920	787.751	-2682.028	 H	10	HIS10	0.186	
150	 1HE	2576.872	786.484	-2684.766	 H	10	HIS10	0.144	
151	 2HE	2576.286	786.526	-2682.210	 H	10	HIS10	0.334	
152	   N	2571.398	790.673	-2686.237	N.am	11	VAL11	-0.416	
153	  CA	2571.043	791.219	-2687.544	C.3	11	VAL11	-0.087	
154	   C	2571.508	792.649	-2687.678	C.2	11	VAL11	0.597	
155	   O	2572.109	793.053	-2688.681	O.2	11	VAL11	-0.568	
156	  CB	2569.481	791.113	-2687.763	C.3	11	VAL11	0.299	
157	 CG1	2568.913	791.816	-2689.026	C.3	11	VAL11	-0.319	
158	 CG2	2568.956	789.659	-2687.835	C.3	11	VAL11	-0.319	
159	   H	2570.685	790.301	-2685.626	 H	11	VAL11	0.272	
160	  HA	2571.562	790.636	-2688.327	 H	11	VAL11	0.097	
161	  HB	2568.994	791.594	-2686.888	 H	11	VAL11	-0.030	
162	1HG1	2569.351	791.424	-2689.963	 H	11	VAL11	0.079	
163	2HG1	2567.814	791.710	-2689.108	 H	11	VAL11	0.079	
164	3HG1	2569.092	792.909	-2689.018	 H	11	VAL11	0.079	
165	1HG2	2569.246	789.072	-2686.945	 H	11	VAL11	0.079	
166	2HG2	2567.850	789.622	-2687.878	 H	11	VAL11	0.079	
167	3HG2	2569.338	789.117	-2688.722	 H	11	VAL11	0.079	
168	   N	2571.272	793.475	-2686.716	N.am	12	GLN12	-0.416	
169	  CA	2571.721	794.858	-2686.844	C.3	12	GLN12	-0.003	
170	   C	2573.211	794.924	-2687.082	C.2	12	GLN12	0.597	
171	   O	2573.698	795.632	-2687.961	O.2	12	GLN12	-0.568	
172	  CB	2571.331	795.626	-2685.561	C.3	12	GLN12	-0.004	
173	  CG	2571.692	797.148	-2685.531	C.3	12	GLN12	-0.064	
174	  CD	2571.390	797.962	-2684.267	C.2	12	GLN12	0.695	
175	 NE2	2570.823	797.387	-2683.237	N.pl3	12	GLN12	-0.941	
176	 OE1	2571.693	799.143	-2684.190	O.2	12	GLN12	-0.609	
177	   H	2570.783	793.170	-2685.886	 H	12	GLN12	0.272	
178	  HA	2571.221	795.314	-2687.719	 H	12	GLN12	0.085	
179	 2HB	2571.807	795.126	-2684.692	 H	12	GLN12	0.017	
180	 3HB	2570.240	795.520	-2685.398	 H	12	GLN12	0.017	
181	 2HG	2571.215	797.669	-2686.382	 H	12	GLN12	0.035	
182	 3HG	2572.775	797.290	-2685.697	 H	12	GLN12	0.035	
183	1HE2	2570.717	797.982	-2682.414	 H	12	GLN12	0.425	
184	2HE2	2570.659	796.383	-2683.340	 H	12	GLN12	0.425	
185	   N	2573.995	794.218	-2686.341	N.am	13	ARG13	-0.348	
186	  CA	2575.436	794.283	-2686.572	C.3	13	ARG13	-0.264	
187	   C	2575.771	793.910	-2687.997	C.2	13	ARG13	0.734	
188	   O	2576.540	794.582	-2688.681	O.2	13	ARG13	-0.589	
189	  CB	2576.149	793.345	-2685.557	C.3	13	ARG13	-0.001	
190	  CG	2577.694	793.497	-2685.477	C.3	13	ARG13	0.039	
191	  CD	2578.321	792.510	-2684.479	C.3	13	ARG13	0.049	
192	  NE	2579.798	792.717	-2684.429	N.pl3	13	ARG13	-0.530	
193	  CZ	2580.646	792.026	-2683.673	C.cat	13	ARG13	0.808	
194	 NH1	2580.281	791.062	-2682.875	N.pl3	13	ARG13	-0.863	
195	 NH2	2581.906	792.324	-2683.731	N.pl3	13	ARG13	-0.863	
196	   H	2573.619	793.629	-2685.612	 H	13	ARG13	0.275	
197	  HA	2575.760	795.329	-2686.414	 H	13	ARG13	0.156	
198	 2HB	2575.882	792.294	-2685.796	 H	13	ARG13	0.033	
199	 3HB	2575.724	793.512	-2684.547	 H	13	ARG13	0.033	
200	 2HG	2577.942	794.542	-2685.198	 H	13	ARG13	0.029	
201	 3HG	2578.144	793.340	-2686.479	 H	13	ARG13	0.029	
202	 2HD	2578.076	791.470	-2684.787	 H	13	ARG13	0.069	
203	 3HD	2577.865	792.657	-2683.476	 H	13	ARG13	0.069	
204	  HE	2580.249	793.439	-2685.000	 H	13	ARG13	0.346	
205	1HH1	2579.276	790.876	-2682.878	 H	13	ARG13	0.448	
206	2HH1	2580.994	790.579	-2682.326	 H	13	ARG13	0.448	
207	1HH2	2582.174	793.082	-2684.363	 H	13	ARG13	0.448	
208	2HH2	2582.541	791.783	-2683.142	 H	13	ARG13	0.448	
209	   N	2575.235	792.856	-2688.510	N.am	14	VAL14	-0.416	
210	  CA	2575.559	792.496	-2689.888	C.3	14	VAL14	-0.087	
211	   C	2575.229	793.625	-2690.834	C.2	14	VAL14	0.597	
212	   O	2576.022	794.006	-2691.703	O.2	14	VAL14	-0.568	
213	  CB	2574.786	791.179	-2690.294	C.3	14	VAL14	0.299	
214	 CG1	2574.875	790.759	-2691.787	C.3	14	VAL14	-0.319	
215	 CG2	2575.218	789.927	-2689.493	C.3	14	VAL14	-0.319	
216	   H	2574.600	792.288	-2687.968	 H	14	VAL14	0.272	
217	  HA	2576.647	792.318	-2689.963	 H	14	VAL14	0.097	
218	  HB	2573.710	791.350	-2690.077	 H	14	VAL14	-0.030	
219	1HG1	2575.916	790.582	-2692.116	 H	14	VAL14	0.079	
220	2HG1	2574.302	789.836	-2691.999	 H	14	VAL14	0.079	
221	3HG1	2574.446	791.521	-2692.465	 H	14	VAL14	0.079	
222	1HG2	2575.131	790.086	-2688.402	 H	14	VAL14	0.079	
223	2HG2	2574.582	789.050	-2689.724	 H	14	VAL14	0.079	
224	3HG2	2576.265	789.636	-2689.698	 H	14	VAL14	0.079	
225	   N	2574.085	794.211	-2690.732	N.am	15	MET15	-0.416	
226	  CA	2573.764	795.304	-2691.646	C.3	15	MET15	-0.024	
227	   C	2574.795	796.404	-2691.559	C.2	15	MET15	0.597	
228	   O	2575.297	796.914	-2692.572	O.2	15	MET15	-0.568	
229	  CB	2572.343	795.850	-2691.337	C.3	15	MET15	0.034	
230	  CG	2571.181	794.852	-2691.528	C.3	15	MET15	0.002	
231	  SD	2569.607	795.718	-2691.414	S.3	15	MET15	-0.274	
232	  CE	2568.526	794.289	-2691.276	C.3	15	MET15	-0.054	
233	   H	2573.420	793.919	-2690.030	 H	15	MET15	0.272	
234	  HA	2573.790	794.916	-2692.681	 H	15	MET15	0.088	
235	 2HB	2572.141	796.728	-2691.979	 H	15	MET15	0.024	
236	 3HB	2572.308	796.243	-2690.301	 H	15	MET15	0.024	
237	 2HG	2571.224	794.066	-2690.750	 H	15	MET15	0.044	
238	 3HG	2571.243	794.336	-2692.504	 H	15	MET15	0.044	
239	 1HE	2568.669	793.600	-2692.128	 H	15	MET15	0.068	
240	 2HE	2568.735	793.736	-2690.343	 H	15	MET15	0.068	
241	 3HE	2567.468	794.604	-2691.260	 H	15	MET15	0.068	
242	   N	2575.164	796.825	-2690.396	N.am	16	TYR16	-0.416	
243	  CA	2576.160	797.889	-2690.313	C.3	16	TYR16	-0.001	
244	   C	2577.430	797.497	-2691.028	C.2	16	TYR16	0.597	
245	   O	2577.553	796.407	-2691.593	O.2	16	TYR16	-0.568	
246	  CB	2576.520	798.198	-2688.830	C.3	16	TYR16	-0.015	
247	  CG	2575.381	798.701	-2687.936	C.2	16	TYR16	-0.001	
248	 CD1	2574.954	800.031	-2688.006	C.2	16	TYR16	-0.191	
249	 CD2	2574.754	797.821	-2687.048	C.2	16	TYR16	-0.191	
250	 CE1	2573.908	800.472	-2687.199	C.2	16	TYR16	-0.234	
251	 CE2	2573.710	798.264	-2686.242	C.2	16	TYR16	-0.234	
252	  CZ	2573.287	799.589	-2686.319	C.2	16	TYR16	0.323	
253	  OH	2572.260	800.026	-2685.531	O.3	16	TYR16	-0.558	
254	   H	2574.769	796.426	-2689.557	 H	16	TYR16	0.272	
255	  HA	2575.759	798.796	-2690.804	 H	16	TYR16	0.088	
256	 2HB	2577.330	798.953	-2688.794	 H	16	TYR16	0.030	
257	 3HB	2576.983	797.300	-2688.370	 H	16	TYR16	0.030	
258	 1HD	2575.426	800.721	-2688.691	 H	16	TYR16	0.170	
259	 2HD	2575.070	796.788	-2686.992	 H	16	TYR16	0.170	
260	 1HE	2573.573	801.496	-2687.256	 H	16	TYR16	0.166	
261	 2HE	2573.230	797.573	-2685.565	 H	16	TYR16	0.166	
262	  HH	2571.955	799.291	-2684.995	 H	16	TYR16	0.399	
@<TRIPOS>BOND
1 1 2 1
2 1 10 1
3 2 3 1
4 2 5 1
5 2 11 1
6 3 4 2
7 3 16 1
8 5 6 1
9 6 7 1
10 7 8 2
11 7 9 1
12 5 12 1
13 5 13 1
14 6 14 1
15 6 15 1
16 16 17 1
17 16 24 1
18 17 18 1
19 17 20 1
20 17 25 1
21 18 19 2
22 18 30 1
23 20 21 1
24 21 22 1
25 21 23 2
26 20 26 1
27 20 27 1
28 22 28 1
29 22 29 1
30 30 31 1
31 30 36 1
32 31 32 1
33 31 34 1
34 31 37 1
35 32 33 2
36 32 44 1
37 34 35 1
38 35 36 1
39 34 38 1
40 34 39 1
41 35 40 1
42 35 41 1
43 36 42 1
44 36 43 1
45 44 45 1
46 44 53 1
47 45 46 1
48 45 48 1
49 45 54 1
50 46 47 2
51 46 59 1
52 48 49 1
53 49 50 1
54 50 51 2
55 50 52 1
56 48 55 1
57 48 56 1
58 49 57 1
59 49 58 1
60 59 60 1
61 59 65 1
62 60 61 1
63 60 63 1
64 60 66 1
65 61 62 2
66 61 70 1
67 63 64 1
68 63 67 1
69 63 68 1
70 64 69 1
71 70 71 1
72 70 78 1
73 71 72 1
74 71 74 1
75 71 79 1
76 72 73 2
77 72 89 1
78 74 75 1
79 74 76 1
80 75 77 1
81 74 80 1
82 75 81 1
83 75 82 1
84 76 83 1
85 76 84 1
86 76 85 1
87 77 86 1
88 77 87 1
89 77 88 1
90 89 90 1
91 89 97 1
92 90 91 1
93 90 93 1
94 90 98 1
95 91 92 2
96 91 108 1
97 93 94 1
98 94 95 1
99 94 96 1
100 93 99 1
101 93 100 1
102 94 101 1
103 95 102 1
104 95 103 1
105 95 104 1
106 96 105 1
107 96 106 1
108 96 107 1
109 108 109 1
110 108 116 1
111 109 110 1
112 109 112 1
113 109 117 1
114 110 111 2
115 110 120 1
116 112 113 1
117 113 114 2
118 113 115 1
119 112 118 1
120 112 119 1
121 120 121 1
122 120 129 1
123 121 122 1
124 121 124 1
125 121 130 1
126 122 123 2
127 122 135 1
128 124 125 1
129 125 126 1
130 126 127 2
131 126 128 1
132 124 131 1
133 124 132 1
134 125 133 1
135 125 134 1
136 135 136 1
137 135 145 1
138 136 137 1
139 136 139 1
140 136 146 1
141 137 138 2
142 137 152 1
143 139 140 1
144 140 141 2
145 141 144 1
146 140 142 1
147 142 143 2
148 143 144 1
149 139 147 1
150 139 148 1
151 141 149 1
152 143 150 1
153 144 151 1
154 152 153 1
155 152 159 1
156 153 154 1
157 153 156 1
158 153 160 1
159 154 155 2
160 154 168 1
161 156 157 1
162 156 158 1
163 156 161 1
164 157 162 1
165 157 163 1
166 157 164 1
167 158 165 1
168 158 166 1
169 158 167 1
170 168 169 1
171 168 177 1
172 169 170 1
173 169 172 1
174 169 178 1
175 170 171 2
176 170 185 1
177 172 173 1
178 173 174 1
179 174 175 1
180 174 176 2
181 172 179 1
182 172 180 1
183 173 181 1
184 173 182 1
185 175 183 1
186 175 184 1
187 185 186 1
188 185 196 1
189 186 187 1
190 186 189 1
191 186 197 1
192 187 188 2
193 187 209 1
194 189 190 1
195 190 191 1
196 191 192 1
197 192 193 1
198 193 194 2
199 193 195 1
200 189 198 1
201 189 199 1
202 190 200 1
203 190 201 1
204 191 202 1
205 191 203 1
206 192 204 1
207 194 205 1
208 194 206 1
209 195 207 1
210 195 208 1
211 209 210 1
212 209 216 1
213 210 211 1
214 210 213 1
215 210 217 1
216 211 212 2
217 211 225 1
218 213 214 1
219 213 215 1
220 213 218 1
221 214 219 1
222 214 220 1
223 214 221 1
224 215 222 1
225 215 223 1
226 215 224 1
227 225 226 1
228 225 233 1
229 226 227 1
230 226 229 1
231 226 234 1
232 227 228 2
233 227 242 1
234 229 230 1
235 230 231 1
236 231 232 1
237 229 235 1
238 229 236 1
239 230 237 1
240 230 238 1
241 232 239 1
242 232 240 1
243 232 241 1
244 242 243 1
245 242 254 1
246 243 244 1
247 243 246 1
248 243 255 1
249 244 245 2
250 246 247 1
251 247 248 2
252 247 249 1
253 249 251 2
254 248 250 1
255 251 252 1
256 250 252 2
257 252 253 1
258 246 256 1
259 246 257 1
260 248 258 1
261 249 259 1
262 250 260 1
263 251 261 1
264 253 262 1
@<TRIPOS>SUBSTRUCTURE
1	GLU1	1	RESIDUE	1 ****	GLU
2	ASN2	16	RESIDUE	1 ****	ASN
3	PRO3	30	RESIDUE	1 ****	PRO
4	GLU4	44	RESIDUE	1 ****	GLU
5	SER5	59	RESIDUE	1 ****	SER
6	ILE6	70	RESIDUE	1 ****	ILE
7	LEU7	89	RESIDUE	1 ****	LEU
8	ASP8	108	RESIDUE	1 ****	ASP
9	GLU9	120	RESIDUE	1 ****	GLU
10	HIS10	135	RESIDUE	1 ****	HIS
11	VAL11	152	RESIDUE	1 ****	VAL
12	GLN12	168	RESIDUE	1 ****	GLN
13	ARG13	185	RESIDUE	1 ****	ARG
14	VAL14	209	RESIDUE	1 ****	VAL
15	MET15	225	RESIDUE	1 ****	MET
16	TYR16	242	RESIDUE	1 ****	TYR
