@<TRIPOS>MOLECULE
14-13
260 261 16              
SMALL
USER_CHARGES
@<TRIPOS>ATOM
1	   N	2267.165	692.502	-2355.429	N.3	1	GLU1	-0.516	
2	  CA	2267.724	693.851	-2355.429	C.3	1	GLU1	0.040	
3	   C	2269.233	693.811	-2355.429	C.2	1	GLU1	0.537	
4	   O	2269.908	694.510	-2356.198	O.2	1	GLU1	-0.582	
5	  CB	2267.200	694.636	-2354.192	C.3	1	GLU1	0.056	
6	  CG	2267.676	696.121	-2354.081	C.3	1	GLU1	0.014	
7	  CD	2267.251	696.925	-2352.866	C.2	1	GLU1	0.805	
8	 OE1	2266.523	696.423	-2351.988	O.co2	1	GLU1	-0.819	
9	 OE2	2267.682	698.095	-2352.794	O.co2	1	GLU1	-0.819	
10	   H	2267.792	691.623	-2355.429	 H	1	GLU1	0.294	
11	  HA	2267.397	694.369	-2356.349	 H	1	GLU1	0.111	
12	 2HB	2267.490	694.105	-2353.262	 H	1	GLU1	-0.017	
13	 3HB	2266.094	694.626	-2354.179	 H	1	GLU1	-0.017	
14	 2HG	2267.365	696.706	-2354.962	 H	1	GLU1	-0.043	
15	 3HG	2268.776	696.188	-2354.052	 H	1	GLU1	-0.043	
16	   N	2269.837	693.025	-2354.604	N.am	2	ASN2	-0.416	
17	  CA	2271.296	692.986	-2354.604	C.3	2	ASN2	0.014	
18	   C	2271.828	692.631	-2355.972	C.2	2	ASN2	0.597	
19	   O	2272.743	693.261	-2356.500	O.2	2	ASN2	-0.568	
20	  CB	2271.788	691.963	-2353.539	C.3	2	ASN2	-0.204	
21	  CG	2271.325	692.187	-2352.096	C.2	2	ASN2	0.713	
22	 ND2	2271.919	693.102	-2351.377	N.pl3	2	ASN2	-0.919	
23	 OD1	2270.404	691.554	-2351.602	O.2	2	ASN2	-0.593	
24	   H	2269.309	692.446	-2353.967	 H	2	ASN2	0.272	
25	  HA	2271.674	693.996	-2354.358	 H	2	ASN2	0.105	
26	 2HB	2272.892	691.904	-2353.542	 H	2	ASN2	0.080	
27	 3HB	2271.459	690.945	-2353.825	 H	2	ASN2	0.080	
28	1HD2	2271.438	693.275	-2350.491	 H	2	ASN2	0.420	
29	2HD2	2272.621	693.674	-2351.846	 H	2	ASN2	0.420	
30	   N	2271.306	691.636	-2356.606	N.am	3	PRO3	-0.255	
31	  CA	2271.759	691.227	-2357.928	C.3	3	PRO3	-0.027	
32	   C	2271.361	692.250	-2359.005	C.2	3	PRO3	0.590	
33	   O	2272.184	692.633	-2359.836	O.2	3	PRO3	-0.575	
34	  CB	2271.054	689.872	-2358.097	C.3	3	PRO3	-0.007	
35	  CG	2269.771	690.024	-2357.268	C.3	3	PRO3	0.019	
36	  CD	2270.228	690.843	-2356.058	C.3	3	PRO3	0.019	
37	  HA	2272.844	691.106	-2357.941	 H	3	PRO3	0.064	
38	 2HB	2271.677	689.091	-2357.656	 H	3	PRO3	0.025	
39	 3HB	2270.856	689.624	-2359.143	 H	3	PRO3	0.025	
40	 2HG	2269.343	689.062	-2356.977	 H	3	PRO3	0.021	
41	 3HG	2269.033	690.596	-2357.835	 H	3	PRO3	0.021	
42	 2HD	2270.617	690.193	-2355.270	 H	3	PRO3	0.039	
43	 3HD	2269.431	691.479	-2355.665	 H	3	PRO3	0.039	
44	   N	2270.156	692.710	-2359.038	N.am	4	GLU4	-0.516	
45	  CA	2269.797	693.681	-2360.067	C.3	4	GLU4	0.040	
46	   C	2270.696	694.892	-2360.006	C.2	4	GLU4	0.537	
47	   O	2271.223	695.372	-2361.020	O.2	4	GLU4	-0.582	
48	  CB	2268.308	694.101	-2359.898	C.3	4	GLU4	0.056	
49	  CG	2267.761	695.104	-2360.963	C.3	4	GLU4	0.014	
50	  CD	2266.334	695.601	-2360.820	C.2	4	GLU4	0.805	
51	 OE1	2265.608	695.203	-2359.890	O.co2	4	GLU4	-0.819	
52	 OE2	2265.946	696.431	-2361.669	O.co2	4	GLU4	-0.819	
53	   H	2269.471	692.404	-2358.361	 H	4	GLU4	0.294	
54	  HA	2269.928	693.211	-2361.059	 H	4	GLU4	0.111	
55	 2HB	2268.156	694.540	-2358.891	 H	4	GLU4	-0.017	
56	 3HB	2267.660	693.203	-2359.904	 H	4	GLU4	-0.017	
57	 2HG	2267.843	694.689	-2361.981	 H	4	GLU4	-0.043	
58	 3HG	2268.349	696.036	-2360.974	 H	4	GLU4	-0.043	
59	   N	2270.923	695.445	-2358.863	N.am	5	SER5	-0.416	
60	  CA	2271.793	696.616	-2358.804	C.3	5	SER5	-0.025	
61	   C	2273.152	696.310	-2359.389	C.2	5	SER5	0.597	
62	   O	2273.700	697.063	-2360.194	O.2	5	SER5	-0.568	
63	  CB	2271.904	697.148	-2357.353	C.3	5	SER5	0.212	
64	  OG	2272.635	696.268	-2356.492	O.3	5	SER5	-0.655	
65	   H	2270.506	695.073	-2358.021	 H	5	SER5	0.272	
66	  HA	2271.344	697.406	-2359.433	 H	5	SER5	0.084	
67	 2HB	2270.904	697.342	-2356.920	 H	5	SER5	0.035	
68	 3HB	2272.410	698.134	-2357.355	 H	5	SER5	0.035	
69	  HG	2272.146	695.444	-2356.441	 H	5	SER5	0.428	
70	   N	2273.756	695.227	-2359.035	N.am	6	ILE6	-0.416	
71	  CA	2275.069	694.931	-2359.601	C.3	6	ILE6	-0.060	
72	   C	2275.012	694.893	-2361.108	C.2	6	ILE6	0.597	
73	   O	2275.847	695.481	-2361.812	O.2	6	ILE6	-0.568	
74	  CB	2275.668	693.595	-2359.000	C.3	6	ILE6	0.130	
75	 CG1	2275.687	693.532	-2357.439	C.3	6	ILE6	-0.043	
76	 CG2	2277.110	693.292	-2359.515	C.3	6	ILE6	-0.320	
77	 CD1	2275.957	692.143	-2356.824	C.3	6	ILE6	-0.066	
78	   H	2273.327	694.592	-2358.376	 H	6	ILE6	0.272	
79	  HA	2275.744	695.765	-2359.333	 H	6	ILE6	0.087	
80	  HB	2275.010	692.769	-2359.345	 H	6	ILE6	0.019	
81	2HG1	2274.705	693.852	-2357.044	 H	6	ILE6	0.024	
82	3HG1	2276.403	694.274	-2357.034	 H	6	ILE6	0.024	
83	1HG2	2277.169	693.199	-2360.614	 H	6	ILE6	0.088	
84	2HG2	2277.832	694.075	-2359.213	 H	6	ILE6	0.088	
85	3HG2	2277.499	692.330	-2359.136	 H	6	ILE6	0.088	
86	1HD1	2275.228	691.389	-2357.179	 H	6	ILE6	0.019	
87	2HD1	2276.967	691.764	-2357.060	 H	6	ILE6	0.019	
88	3HD1	2275.880	692.173	-2355.722	 H	6	ILE6	0.019	
89	   N	2274.066	694.230	-2361.682	N.am	7	LEU7	-0.416	
90	  CA	2274.011	694.194	-2363.140	C.3	7	LEU7	-0.052	
91	   C	2273.939	695.589	-2363.713	C.2	7	LEU7	0.597	
92	   O	2274.660	695.951	-2364.656	O.2	7	LEU7	-0.568	
93	  CB	2272.808	693.334	-2363.621	C.3	7	LEU7	-0.110	
94	  CG	2272.735	691.855	-2363.154	C.3	7	LEU7	0.353	
95	 CD1	2271.545	691.149	-2363.820	C.3	7	LEU7	-0.412	
96	 CD2	2274.028	691.075	-2363.446	C.3	7	LEU7	-0.412	
97	   H	2273.374	693.743	-2361.131	 H	7	LEU7	0.272	
98	  HA	2274.953	693.754	-2363.515	 H	7	LEU7	0.092	
99	 2HB	2272.785	693.350	-2364.729	 H	7	LEU7	0.046	
100	 3HB	2271.868	693.837	-2363.317	 H	7	LEU7	0.046	
101	  HG	2272.565	691.847	-2362.057	 H	7	LEU7	-0.036	
102	1HD1	2270.587	691.659	-2363.597	 H	7	LEU7	0.100	
103	2HD1	2271.644	691.109	-2364.921	 H	7	LEU7	0.100	
104	3HD1	2271.437	690.108	-2363.464	 H	7	LEU7	0.100	
105	1HD2	2274.303	691.106	-2364.516	 H	7	LEU7	0.100	
106	2HD2	2274.881	691.487	-2362.874	 H	7	LEU7	0.100	
107	3HD2	2273.946	690.013	-2363.150	 H	7	LEU7	0.100	
108	   N	2273.102	696.431	-2363.208	N.am	8	ASP8	-0.516	
109	  CA	2273.032	697.780	-2363.761	C.3	8	ASP8	0.038	
110	   C	2274.380	698.459	-2363.705	C.2	8	ASP8	0.537	
111	   O	2274.853	699.063	-2364.680	O.2	8	ASP8	-0.582	
112	  CB	2271.955	698.620	-2363.021	C.3	8	ASP8	-0.030	
113	  CG	2271.737	700.040	-2363.562	C.2	8	ASP8	0.799	
114	 OD1	2271.801	700.239	-2364.793	O.co2	8	ASP8	-0.801	
115	 OD2	2271.545	700.967	-2362.747	O.co2	8	ASP8	-0.801	
116	   H	2272.504	696.160	-2362.440	 H	8	ASP8	0.294	
117	  HA	2272.750	697.701	-2364.829	 H	8	ASP8	0.088	
118	 2HB	2272.212	698.704	-2361.949	 H	8	ASP8	-0.012	
119	 3HB	2270.976	698.115	-2363.053	 H	8	ASP8	-0.012	
120	   N	2275.060	698.409	-2362.610	N.am	9	GLU9	-0.516	
121	  CA	2276.363	699.066	-2362.555	C.3	9	GLU9	0.040	
122	   C	2277.280	698.538	-2363.631	C.2	9	GLU9	0.537	
123	   O	2277.944	699.291	-2364.357	O.2	9	GLU9	-0.582	
124	  CB	2276.996	698.859	-2361.150	C.3	9	GLU9	0.056	
125	  CG	2278.379	699.551	-2360.921	C.3	9	GLU9	0.014	
126	  CD	2279.081	699.338	-2359.593	C.2	9	GLU9	0.805	
127	 OE1	2278.560	698.648	-2358.696	O.co2	9	GLU9	-0.819	
128	 OE2	2280.201	699.875	-2359.461	O.co2	9	GLU9	-0.819	
129	   H	2274.696	697.924	-2361.802	 H	9	GLU9	0.294	
130	  HA	2276.221	700.148	-2362.731	 H	9	GLU9	0.111	
131	 2HB	2277.109	697.775	-2360.946	 H	9	GLU9	-0.017	
132	 3HB	2276.300	699.213	-2360.365	 H	9	GLU9	-0.017	
133	 2HG	2278.308	700.641	-2361.061	 H	9	GLU9	-0.043	
134	 3HG	2279.126	699.205	-2361.655	 H	9	GLU9	-0.043	
135	   N	2277.376	697.262	-2363.800	N.am	10	HIS10	-0.416	
136	  CA	2278.263	696.750	-2364.840	C.3	10	HIS10	-0.058	
137	   C	2277.896	697.314	-2366.191	C.2	10	HIS10	0.597	
138	   O	2278.749	697.778	-2366.964	O.2	10	HIS10	-0.568	
139	  CB	2278.099	695.221	-2364.834	C.3	10	HIS10	-0.007	
140	  CG	2279.384	694.510	-2364.526	C.2	10	HIS10	0.187	
141	 CD2	2279.766	694.176	-2363.234	C.2	10	HIS10	-0.221	
142	 ND1	2280.336	694.104	-2365.459	N.2	10	HIS10	-0.543	
143	 CE1	2281.242	693.546	-2364.636	C.2	10	HIS10	0.163	
144	 NE2	2280.980	693.544	-2363.301	N.pl3	10	HIS10	-0.280	
145	   H	2276.845	696.628	-2363.221	 H	10	HIS10	0.272	
146	  HA	2279.283	697.107	-2364.616	 H	10	HIS10	0.136	
147	 2HB	2277.733	694.854	-2365.814	 H	10	HIS10	0.037	
148	 3HB	2277.343	694.885	-2364.094	 H	10	HIS10	0.037	
149	 2HD	2279.180	694.392	-2362.345	 H	10	HIS10	0.186	
150	 1HE	2282.133	693.124	-2365.083	 H	10	HIS10	0.144	
151	 2HE	2281.547	693.167	-2362.527	 H	10	HIS10	0.334	
152	   N	2276.659	697.314	-2366.554	N.am	11	VAL11	-0.416	
153	  CA	2276.303	697.859	-2367.861	C.3	11	VAL11	-0.087	
154	   C	2276.769	699.290	-2367.995	C.2	11	VAL11	0.597	
155	   O	2277.370	699.694	-2368.998	O.2	11	VAL11	-0.568	
156	  CB	2274.742	697.753	-2368.080	C.3	11	VAL11	0.299	
157	 CG1	2274.174	698.457	-2369.343	C.3	11	VAL11	-0.319	
158	 CG2	2274.217	696.299	-2368.152	C.3	11	VAL11	-0.319	
159	   H	2275.946	696.942	-2365.943	 H	11	VAL11	0.272	
160	  HA	2276.823	697.276	-2368.644	 H	11	VAL11	0.097	
161	  HB	2274.255	698.234	-2367.205	 H	11	VAL11	-0.030	
162	1HG1	2274.612	698.064	-2370.280	 H	11	VAL11	0.079	
163	2HG1	2273.075	698.350	-2369.425	 H	11	VAL11	0.079	
164	3HG1	2274.353	699.549	-2369.335	 H	11	VAL11	0.079	
165	1HG2	2274.507	695.713	-2367.261	 H	11	VAL11	0.079	
166	2HG2	2273.111	696.263	-2368.195	 H	11	VAL11	0.079	
167	3HG2	2274.598	695.758	-2369.039	 H	11	VAL11	0.079	
168	   N	2276.532	700.116	-2367.032	N.am	12	GLN12	-0.416	
169	  CA	2276.982	701.499	-2367.160	C.3	12	GLN12	-0.003	
170	   C	2278.471	701.565	-2367.399	C.2	12	GLN12	0.597	
171	   O	2278.959	702.273	-2368.278	O.2	12	GLN12	-0.568	
172	  CB	2276.591	702.267	-2365.878	C.3	12	GLN12	-0.004	
173	  CG	2276.953	703.788	-2365.848	C.3	12	GLN12	-0.064	
174	  CD	2276.651	704.603	-2364.583	C.2	12	GLN12	0.695	
175	 NE2	2276.084	704.027	-2363.554	N.pl3	12	GLN12	-0.941	
176	 OE1	2276.954	705.784	-2364.507	O.2	12	GLN12	-0.609	
177	   H	2276.044	699.810	-2366.203	 H	12	GLN12	0.272	
178	  HA	2276.482	701.955	-2368.036	 H	12	GLN12	0.085	
179	 2HB	2277.067	701.767	-2365.009	 H	12	GLN12	0.017	
180	 3HB	2275.501	702.160	-2365.715	 H	12	GLN12	0.017	
181	 2HG	2276.475	704.309	-2366.699	 H	12	GLN12	0.035	
182	 3HG	2278.036	703.930	-2366.014	 H	12	GLN12	0.035	
183	1HE2	2275.978	704.622	-2362.731	 H	12	GLN12	0.425	
184	2HE2	2275.920	703.024	-2363.657	 H	12	GLN12	0.425	
185	   N	2279.256	700.858	-2366.657	N.am	13	ARG13	-0.348	
186	  CA	2280.696	700.923	-2366.889	C.3	13	ARG13	-0.264	
187	   C	2281.032	700.551	-2368.313	C.2	13	ARG13	0.734	
188	   O	2281.801	701.222	-2368.998	O.2	13	ARG13	-0.589	
189	  CB	2281.409	699.985	-2365.874	C.3	13	ARG13	-0.001	
190	  CG	2282.955	700.138	-2365.794	C.3	13	ARG13	0.039	
191	  CD	2283.582	699.151	-2364.796	C.3	13	ARG13	0.049	
192	  NE	2285.059	699.357	-2364.746	N.pl3	13	ARG13	-0.530	
193	  CZ	2285.907	698.666	-2363.990	C.cat	13	ARG13	0.808	
194	 NH1	2285.542	697.703	-2363.192	N.pl3	13	ARG13	-0.863	
195	 NH2	2287.167	698.965	-2364.048	N.pl3	13	ARG13	-0.863	
196	   H	2278.880	700.269	-2365.928	 H	13	ARG13	0.275	
197	  HA	2281.021	701.969	-2366.731	 H	13	ARG13	0.156	
198	 2HB	2281.143	698.934	-2366.113	 H	13	ARG13	0.033	
199	 3HB	2280.985	700.152	-2364.864	 H	13	ARG13	0.033	
200	 2HG	2283.203	701.183	-2365.515	 H	13	ARG13	0.029	
201	 3HG	2283.405	699.981	-2366.795	 H	13	ARG13	0.029	
202	 2HD	2283.337	698.110	-2365.104	 H	13	ARG13	0.069	
203	 3HD	2283.126	699.297	-2363.793	 H	13	ARG13	0.069	
204	  HE	2285.510	700.079	-2365.317	 H	13	ARG13	0.346	
205	1HH1	2284.536	697.517	-2363.195	 H	13	ARG13	0.448	
206	2HH1	2286.255	697.220	-2362.643	 H	13	ARG13	0.448	
207	1HH2	2287.434	699.722	-2364.679	 H	13	ARG13	0.448	
208	2HH2	2287.802	698.424	-2363.459	 H	13	ARG13	0.448	
209	   N	2280.495	699.496	-2368.827	N.am	14	SER14	-0.416	
210	  CA	2280.820	699.137	-2370.205	C.3	14	SER14	-0.025	
211	   C	2280.490	700.268	-2371.151	C.2	14	SER14	0.597	
212	   O	2281.280	700.646	-2372.015	O.2	14	SER14	-0.568	
213	  CB	2280.107	697.824	-2370.615	C.3	14	SER14	0.212	
214	  OG	2278.689	697.977	-2370.740	O.3	14	SER14	-0.655	
215	   H	2279.860	698.928	-2368.285	 H	14	SER14	0.272	
216	  HA	2281.912	698.976	-2370.266	 H	14	SER14	0.084	
217	 2HB	2280.330	697.008	-2369.901	 H	14	SER14	0.035	
218	 3HB	2280.507	697.471	-2371.585	 H	14	SER14	0.035	
219	  HG	2278.348	698.211	-2369.874	 H	14	SER14	0.428	
220	   N	2279.346	700.854	-2371.050	N.am	15	MET15	-0.416	
221	  CA	2279.026	701.947	-2371.963	C.3	15	MET15	-0.024	
222	   C	2280.057	703.046	-2371.875	C.2	15	MET15	0.597	
223	   O	2280.560	703.557	-2372.887	O.2	15	MET15	-0.568	
224	  CB	2277.605	702.493	-2371.655	C.3	15	MET15	0.034	
225	  CG	2276.443	701.495	-2371.847	C.3	15	MET15	0.002	
226	  SD	2274.869	702.362	-2371.733	S.3	15	MET15	-0.274	
227	  CE	2273.787	700.933	-2371.596	C.3	15	MET15	-0.054	
228	   H	2278.680	700.562	-2370.348	 H	15	MET15	0.272	
229	  HA	2279.052	701.560	-2372.999	 H	15	MET15	0.088	
230	 2HB	2277.403	703.372	-2372.297	 H	15	MET15	0.024	
231	 3HB	2277.569	702.886	-2370.619	 H	15	MET15	0.024	
232	 2HG	2276.485	700.710	-2371.069	 H	15	MET15	0.044	
233	 3HG	2276.505	700.980	-2372.823	 H	15	MET15	0.044	
234	 1HE	2273.931	700.244	-2372.448	 H	15	MET15	0.068	
235	 2HE	2273.996	700.380	-2370.663	 H	15	MET15	0.068	
236	 3HE	2272.730	701.249	-2371.580	 H	15	MET15	0.068	
237	   N	2280.425	703.467	-2370.713	N.am	16	ARG16	-0.348	
238	  CA	2281.422	704.530	-2370.628	C.3	16	ARG16	-0.264	
239	   C	2282.693	704.137	-2371.344	C.2	16	ARG16	0.734	
240	   O	2282.807	703.060	-2371.925	O.2	16	ARG16	-0.589	
241	  CB	2281.690	704.848	-2369.130	C.3	16	ARG16	-0.001	
242	  CG	2282.516	706.137	-2368.857	C.3	16	ARG16	0.039	
243	  CD	2282.765	706.356	-2367.355	C.3	16	ARG16	0.049	
244	  NE	2283.542	707.615	-2367.154	N.pl3	16	ARG16	-0.530	
245	  CZ	2283.933	708.097	-2365.978	C.cat	16	ARG16	0.808	
246	 NH1	2283.684	707.513	-2364.840	N.pl3	16	ARG16	-0.863	
247	 NH2	2284.597	709.209	-2365.959	N.pl3	16	ARG16	-0.863	
248	   H	2280.030	703.067	-2369.874	 H	16	ARG16	0.275	
249	  HA	2281.014	705.424	-2371.138	 H	16	ARG16	0.156	
250	 2HB	2282.187	703.972	-2368.663	 H	16	ARG16	0.033	
251	 3HB	2280.721	704.930	-2368.597	 H	16	ARG16	0.033	
252	 2HG	2281.986	707.008	-2369.294	 H	16	ARG16	0.029	
253	 3HG	2283.490	706.084	-2369.385	 H	16	ARG16	0.029	
254	 2HD	2283.313	705.481	-2366.942	 H	16	ARG16	0.069	
255	 3HD	2281.792	706.399	-2366.821	 H	16	ARG16	0.069	
256	  HE	2283.821	708.196	-2367.951	 H	16	ARG16	0.346	
257	1HH1	2283.158	706.640	-2364.925	 H	16	ARG16	0.448	
258	2HH1	2284.018	707.948	-2363.979	 H	16	ARG16	0.448	
259	1HH2	2284.783	709.652	-2366.861	 H	16	ARG16	0.448	
260	2HH2	2284.887	709.564	-2365.047	 H	16	ARG16	0.448	
@<TRIPOS>BOND
1 1 2 1
2 1 10 1
3 2 3 1
4 2 5 1
5 2 11 1
6 3 4 2
7 3 16 1
8 5 6 1
9 6 7 1
10 7 8 2
11 7 9 1
12 5 12 1
13 5 13 1
14 6 14 1
15 6 15 1
16 16 17 1
17 16 24 1
18 17 18 1
19 17 20 1
20 17 25 1
21 18 19 2
22 18 30 1
23 20 21 1
24 21 22 1
25 21 23 2
26 20 26 1
27 20 27 1
28 22 28 1
29 22 29 1
30 30 31 1
31 30 36 1
32 31 32 1
33 31 34 1
34 31 37 1
35 32 33 2
36 32 44 1
37 34 35 1
38 35 36 1
39 34 38 1
40 34 39 1
41 35 40 1
42 35 41 1
43 36 42 1
44 36 43 1
45 44 45 1
46 44 53 1
47 45 46 1
48 45 48 1
49 45 54 1
50 46 47 2
51 46 59 1
52 48 49 1
53 49 50 1
54 50 51 2
55 50 52 1
56 48 55 1
57 48 56 1
58 49 57 1
59 49 58 1
60 59 60 1
61 59 65 1
62 60 61 1
63 60 63 1
64 60 66 1
65 61 62 2
66 61 70 1
67 63 64 1
68 63 67 1
69 63 68 1
70 64 69 1
71 70 71 1
72 70 78 1
73 71 72 1
74 71 74 1
75 71 79 1
76 72 73 2
77 72 89 1
78 74 75 1
79 74 76 1
80 75 77 1
81 74 80 1
82 75 81 1
83 75 82 1
84 76 83 1
85 76 84 1
86 76 85 1
87 77 86 1
88 77 87 1
89 77 88 1
90 89 90 1
91 89 97 1
92 90 91 1
93 90 93 1
94 90 98 1
95 91 92 2
96 91 108 1
97 93 94 1
98 94 95 1
99 94 96 1
100 93 99 1
101 93 100 1
102 94 101 1
103 95 102 1
104 95 103 1
105 95 104 1
106 96 105 1
107 96 106 1
108 96 107 1
109 108 109 1
110 108 116 1
111 109 110 1
112 109 112 1
113 109 117 1
114 110 111 2
115 110 120 1
116 112 113 1
117 113 114 2
118 113 115 1
119 112 118 1
120 112 119 1
121 120 121 1
122 120 129 1
123 121 122 1
124 121 124 1
125 121 130 1
126 122 123 2
127 122 135 1
128 124 125 1
129 125 126 1
130 126 127 2
131 126 128 1
132 124 131 1
133 124 132 1
134 125 133 1
135 125 134 1
136 135 136 1
137 135 145 1
138 136 137 1
139 136 139 1
140 136 146 1
141 137 138 2
142 137 152 1
143 139 140 1
144 140 141 2
145 141 144 1
146 140 142 1
147 142 143 2
148 143 144 1
149 139 147 1
150 139 148 1
151 141 149 1
152 143 150 1
153 144 151 1
154 152 153 1
155 152 159 1
156 153 154 1
157 153 156 1
158 153 160 1
159 154 155 2
160 154 168 1
161 156 157 1
162 156 158 1
163 156 161 1
164 157 162 1
165 157 163 1
166 157 164 1
167 158 165 1
168 158 166 1
169 158 167 1
170 168 169 1
171 168 177 1
172 169 170 1
173 169 172 1
174 169 178 1
175 170 171 2
176 170 185 1
177 172 173 1
178 173 174 1
179 174 175 1
180 174 176 2
181 172 179 1
182 172 180 1
183 173 181 1
184 173 182 1
185 175 183 1
186 175 184 1
187 185 186 1
188 185 196 1
189 186 187 1
190 186 189 1
191 186 197 1
192 187 188 2
193 187 209 1
194 189 190 1
195 190 191 1
196 191 192 1
197 192 193 1
198 193 194 2
199 193 195 1
200 189 198 1
201 189 199 1
202 190 200 1
203 190 201 1
204 191 202 1
205 191 203 1
206 192 204 1
207 194 205 1
208 194 206 1
209 195 207 1
210 195 208 1
211 209 210 1
212 209 215 1
213 210 211 1
214 210 213 1
215 210 216 1
216 211 212 2
217 211 220 1
218 213 214 1
219 213 217 1
220 213 218 1
221 214 219 1
222 220 221 1
223 220 228 1
224 221 222 1
225 221 224 1
226 221 229 1
227 222 223 2
228 222 237 1
229 224 225 1
230 225 226 1
231 226 227 1
232 224 230 1
233 224 231 1
234 225 232 1
235 225 233 1
236 227 234 1
237 227 235 1
238 227 236 1
239 237 238 1
240 237 248 1
241 238 239 1
242 238 241 1
243 238 249 1
244 239 240 2
245 241 242 1
246 242 243 1
247 243 244 1
248 244 245 1
249 245 246 2
250 245 247 1
251 241 250 1
252 241 251 1
253 242 252 1
254 242 253 1
255 243 254 1
256 243 255 1
257 244 256 1
258 246 257 1
259 246 258 1
260 247 259 1
261 247 260 1
@<TRIPOS>SUBSTRUCTURE
1	GLU1	1	RESIDUE	1 ****	GLU
2	ASN2	16	RESIDUE	1 ****	ASN
3	PRO3	30	RESIDUE	1 ****	PRO
4	GLU4	44	RESIDUE	1 ****	GLU
5	SER5	59	RESIDUE	1 ****	SER
6	ILE6	70	RESIDUE	1 ****	ILE
7	LEU7	89	RESIDUE	1 ****	LEU
8	ASP8	108	RESIDUE	1 ****	ASP
9	GLU9	120	RESIDUE	1 ****	GLU
10	HIS10	135	RESIDUE	1 ****	HIS
11	VAL11	152	RESIDUE	1 ****	VAL
12	GLN12	168	RESIDUE	1 ****	GLN
13	ARG13	185	RESIDUE	1 ****	ARG
14	SER14	209	RESIDUE	1 ****	SER
15	MET15	220	RESIDUE	1 ****	MET
16	ARG16	237	RESIDUE	1 ****	ARG
