REMARK WARNING: 32 MAX_TORS EXCEEDED!!!
REMARK  66 active torsions:
REMARK  status: ('A' for Active; 'I' for Inactive)
REMARK    1  A    between atoms: N_1  and  CA_2 
REMARK    2  A    between atoms: CA_2  and  C_3 
REMARK    3  A    between atoms: CA_2  and  CB_5 
REMARK       I    between atoms: C_3  and  N_11 
REMARK    4  A    between atoms: CB_5  and  CG_6 
REMARK    5  A    between atoms: CG_6  and  CD_7 
REMARK    6  A    between atoms: N_11  and  CA_12 
REMARK    7  A    between atoms: CA_12  and  C_13 
REMARK    8  A    between atoms: CA_12  and  CB_15 
REMARK       I    between atoms: C_13  and  N_22 
REMARK    9  A    between atoms: CB_15  and  CG_16 
REMARK       I    between atoms: CG_16  and  ND2_17 
REMARK   10  A    between atoms: CA_23  and  C_24 
REMARK       I    between atoms: C_24  and  N_29 
REMARK   11  A    between atoms: N_29  and  CA_30 
REMARK   12  A    between atoms: CA_30  and  C_31 
REMARK   13  A    between atoms: CA_30  and  CB_33 
REMARK       I    between atoms: C_31  and  N_39 
REMARK   14  A    between atoms: CB_33  and  CG_34 
REMARK   15  A    between atoms: CG_34  and  CD_35 
REMARK   16  A    between atoms: N_39  and  CA_40 
REMARK   17  A    between atoms: CA_40  and  C_41 
REMARK   18  A    between atoms: CA_40  and  CB_43 
REMARK       I    between atoms: C_41  and  N_47 
REMARK   19  A    between atoms: CB_43  and  OG_44 
REMARK   20  A    between atoms: N_47  and  CA_48 
REMARK   21  A    between atoms: CA_48  and  C_49 
REMARK   22  A    between atoms: CA_48  and  CB_51 
REMARK       I    between atoms: C_49  and  N_56 
REMARK   23  A    between atoms: CB_51  and  CG1_52 
REMARK   24  A    between atoms: N_56  and  CA_57 
REMARK   25  A    between atoms: CA_57  and  C_58 
REMARK   26  A    between atoms: CA_57  and  CB_60 
REMARK       I    between atoms: C_58  and  N_65 
REMARK   27  A    between atoms: CB_60  and  CG_61 
REMARK   28  A    between atoms: N_65  and  CA_66 
REMARK   29  A    between atoms: CA_66  and  C_67 
REMARK   30  A    between atoms: CA_66  and  CB_69 
REMARK       I    between atoms: C_67  and  N_74 
REMARK   31  A    between atoms: CB_69  and  CG_70 
REMARK   32  A    between atoms: N_74  and  CA_75 
REMARK   33  A    between atoms: CA_75  and  C_76 
REMARK   34  A    between atoms: CA_75  and  CB_78 
REMARK       I    between atoms: C_76  and  N_84 
REMARK   35  A    between atoms: CB_78  and  CG_79 
REMARK   36  A    between atoms: CG_79  and  CD_80 
REMARK   37  A    between atoms: N_84  and  CA_85 
REMARK   38  A    between atoms: CA_85  and  C_86 
REMARK   39  A    between atoms: CA_85  and  CB_88 
REMARK       I    between atoms: C_86  and  N_96 
REMARK   40  A    between atoms: CB_88  and  CG_89 
REMARK   41  A    between atoms: N_96  and  CA_97 
REMARK   42  A    between atoms: CA_97  and  C_98 
REMARK   43  A    between atoms: CA_97  and  CB_100 
REMARK       I    between atoms: C_98  and  N_104 
REMARK   44  A    between atoms: N_104  and  CA_105 
REMARK   45  A    between atoms: CA_105  and  C_106 
REMARK   46  A    between atoms: CA_105  and  CB_108 
REMARK       I    between atoms: C_106  and  N_116 
REMARK   47  A    between atoms: CB_108  and  CG_109 
REMARK   48  A    between atoms: CG_109  and  CD_110 
REMARK       I    between atoms: CD_110  and  NE2_111 
REMARK   49  A    between atoms: N_116  and  CA_117 
REMARK   50  A    between atoms: CA_117  and  C_118 
REMARK   51  A    between atoms: CA_117  and  CB_120 
REMARK       I    between atoms: C_118  and  N_133 
REMARK   52  A    between atoms: CB_120  and  CG_121 
REMARK   53  A    between atoms: CG_121  and  CD_122 
REMARK   54  A    between atoms: CD_122  and  NE_123 
REMARK       I    between atoms: NE_123  and  CZ_124 
REMARK       I    between atoms: CZ_124  and  NH1_125 
REMARK   55  A    between atoms: N_133  and  CA_134 
REMARK   56  A    between atoms: CA_134  and  C_135 
REMARK   57  A    between atoms: CA_134  and  CB_137 
REMARK       I    between atoms: C_135  and  N_141 
REMARK   58  A    between atoms: N_141  and  CA_142 
REMARK   59  A    between atoms: CA_142  and  C_143 
REMARK   60  A    between atoms: CA_142  and  CB_145 
REMARK       I    between atoms: C_143  and  N_150 
REMARK   61  A    between atoms: CB_145  and  CG_146 
REMARK   62  A    between atoms: CG_146  and  SD_147 
REMARK   63  A    between atoms: N_150  and  CA_151 
REMARK   64  A    between atoms: CA_151  and  C_152 
REMARK   65  A    between atoms: CA_151  and  CB_154 
REMARK   66  A    between atoms: CB_154  and  CG1_155 
ROOT
ATOM      1  CA  GLU d   9    2547.118 785.135-2655.606  0.00  0.00     0.177 C 
ENDROOT
BRANCH   1   2
ATOM      2  N   GLU d   9    2545.815 784.478-2655.661  0.00  0.00    -0.346 N 
ATOM      3  C   ASP d   8    2545.135 784.528-2656.756  0.00  0.00     0.241 C 
ATOM      4  O   ASP d   8    2545.608 785.132-2657.731  0.00  0.00    -0.271 OA
ATOM      5  H   GLU d   9    2545.452 783.993-2654.853  0.00  0.00     0.163 HD
BRANCH   3   6
ATOM      6  CA  ASP d   8    2543.788 783.849-2656.812  0.00  0.00     0.186 C 
BRANCH   6   7
ATOM      7  N   ASP d   8    2543.858 782.500-2656.259  0.00  0.00    -0.346 N 
ATOM      8  C   LEU d   7    2544.695 781.658-2656.764  0.00  0.00     0.241 C 
ATOM      9  O   LEU d   7    2545.416 782.020-2657.707  0.00  0.00    -0.271 OA
ATOM     10  H   ASP d   8    2543.260 782.229-2655.491  0.00  0.00     0.163 HD
BRANCH   8  11
ATOM     11  CA  LEU d   7    2544.767 780.263-2656.191  0.00  0.00     0.177 C 
BRANCH  11  12
ATOM     12  N   LEU d   7    2544.822 780.299-2654.733  0.00  0.00    -0.346 N 
ATOM     13  C   ILE d   6    2545.768 780.962-2654.159  0.00  0.00     0.241 C 
ATOM     14  O   ILE d   6    2546.603 781.550-2654.863  0.00  0.00    -0.271 OA
ATOM     15  H   LEU d   7    2544.130 779.812-2654.182  0.00  0.00     0.163 HD
BRANCH  13  16
ATOM     16  CA  ILE d   6    2545.825 781.000-2652.652  0.00  0.00     0.180 C 
BRANCH  16  17
ATOM     17  N   ILE d   6    2544.512 781.295-2652.086  0.00  0.00    -0.346 N 
ATOM     18  C   SER d   5    2543.907 782.379-2652.440  0.00  0.00     0.243 C 
ATOM     19  O   SER d   5    2544.455 783.132-2653.245  0.00  0.00    -0.271 OA
ATOM     20  H   ILE d   6    2544.083 780.661-2651.427  0.00  0.00     0.163 HD
BRANCH  18  21
ATOM     21  CA  SER d   5    2542.549 782.685-2651.855  0.00  0.00     0.200 C 
BRANCH  21  22
ATOM     22  N   SER d   5    2541.679 781.514-2651.914  0.00  0.00    -0.344 N 
ATOM     23  C   GLU d   4    2541.452 780.961-2653.057  0.00  0.00     0.241 C 
ATOM     24  O   GLU d   4    2541.979 781.441-2654.071  0.00  0.00    -0.271 OA
ATOM     25  H   SER d   5    2541.261 781.142-2651.072  0.00  0.00     0.163 HD
BRANCH  23  26
ATOM     26  CA  GLU d   4    2540.552 779.750-2653.118  0.00  0.00     0.177 C 
BRANCH  26  27
ATOM     27  N   GLU d   4    2540.912 778.779-2652.089  0.00  0.00    -0.346 N 
ATOM     28  C   PRO d   3    2542.116 778.319-2652.056  0.00  0.00     0.241 C 
ATOM     29  O   PRO d   3    2542.940 778.702-2652.887  0.00  0.00    -0.271 OA
ATOM     30  H   GLU d   4    2540.227 778.473-2651.412  0.00  0.00     0.163 HD
BRANCH  28  31
ATOM     31  CA  PRO d   3    2542.514 777.296-2650.979  0.00  0.00     0.179 C 
ATOM     32  N   PRO d   3    2542.062 777.705-2649.657  0.00  0.00    -0.337 N 
ATOM     33  C   ASN d   2    2542.583 778.700-2649.023  0.00  0.00     0.243 C 
ATOM     34  CD  PRO d   3    2540.984 776.912-2649.109  0.00  0.00     0.127 C 
ATOM     35  O   ASN d   2    2543.499 779.330-2649.551  0.00  0.00    -0.271 OA
ATOM     36  CG  PRO d   3    2540.526 776.093-2650.319  0.00  0.00     0.022 C 
ATOM     37  CB  PRO d   3    2541.810 775.941-2651.148  0.00  0.00     0.037 C 
BRANCH  33  38
ATOM     38  CA  ASN d   2    2542.052 779.055-2647.655  0.00  0.00     0.185 C 
BRANCH  38  39
ATOM     39  N   ASN d   2    2540.593 779.094-2647.655  0.00  0.00    -0.346 N 
ATOM     40  C   GLU d   1    2539.988 779.880-2648.480  0.00  0.00     0.242 C 
ATOM     41  O   GLU d   1    2540.664 780.579-2649.249  0.00  0.00    -0.271 OA
ATOM     42  H   ASN d   2    2540.064 778.515-2647.018  0.00  0.00     0.163 HD
BRANCH  40  43
ATOM     43  CA  GLU d   1    2538.479 779.920-2648.480  0.00  0.00     0.191 C 
BRANCH  43  44
ATOM     44  N   GLU d   1    2537.920 778.571-2648.480  0.00  0.00    -0.326 NA
ATOM     45  H   GLU d   1    2538.547 777.692-2648.480  0.00  0.00     0.180 HD
ENDBRANCH  43  44
BRANCH  43  46
ATOM     46  CB  GLU d   1    2537.956 780.705-2647.243  0.00  0.00     0.047 C 
BRANCH  46  47
ATOM     47  CG  GLU d   1    2538.431 782.190-2647.132  0.00  0.00     0.116 C 
BRANCH  47  48
ATOM     48  CD  GLU d   1    2538.007 782.994-2645.917  0.00  0.00     0.172 C 
ATOM     49  OE1 GLU d   1    2537.279 782.492-2645.039  0.00  0.00    -0.648 OA
ATOM     50  OE2 GLU d   1    2538.437 784.164-2645.845  0.00  0.00    -0.648 OA
ENDBRANCH  47  48
ENDBRANCH  46  47
ENDBRANCH  43  46
ENDBRANCH  40  43
ENDBRANCH  38  39
BRANCH  38  51
ATOM     51  CB  ASN d   2    2542.544 778.032-2646.590  0.00  0.00     0.137 C 
BRANCH  51  52
ATOM     52  CG  ASN d   2    2542.080 778.256-2645.147  0.00  0.00     0.217 C 
ATOM     53  ND2 ASN d   2    2542.674 779.171-2644.428  0.00  0.00    -0.370 N 
ATOM     54 21HD ASN d   2    2542.193 779.344-2643.542  0.00  0.00     0.159 HD
ATOM     55 22HD ASN d   2    2543.376 779.743-2644.897  0.00  0.00     0.159 HD
ATOM     56  OD1 ASN d   2    2541.159 777.623-2644.653  0.00  0.00    -0.274 OA
ENDBRANCH  51  52
ENDBRANCH  38  51
ENDBRANCH  33  38
ENDBRANCH  28  31
ENDBRANCH  26  27
BRANCH  26  57
ATOM     57  CB  GLU d   4    2539.064 780.170-2652.949  0.00  0.00     0.045 C 
BRANCH  57  58
ATOM     58  CG  GLU d   4    2538.517 781.173-2654.014  0.00  0.00     0.116 C 
BRANCH  58  59
ATOM     59  CD  GLU d   4    2537.090 781.670-2653.871  0.00  0.00     0.172 C 
ATOM     60  OE1 GLU d   4    2536.363 781.272-2652.941  0.00  0.00    -0.648 OA
ATOM     61  OE2 GLU d   4    2536.701 782.500-2654.720  0.00  0.00    -0.648 OA
ENDBRANCH  58  59
ENDBRANCH  57  58
ENDBRANCH  26  57
ENDBRANCH  23  26
ENDBRANCH  21  22
BRANCH  21  62
ATOM     62  CB  SER d   5    2542.660 783.217-2650.404  0.00  0.00     0.199 C 
BRANCH  62  63
ATOM     63  OG  SER d   5    2543.391 782.337-2649.543  0.00  0.00    -0.398 OA
ATOM     64  HG  SER d   5    2542.902 781.513-2649.492  0.00  0.00     0.209 HD
ENDBRANCH  62  63
ENDBRANCH  21  62
ENDBRANCH  18  21
ENDBRANCH  16  17
BRANCH  16  65
ATOM     65  CB  ILE d   6    2546.424 779.664-2652.051  0.00  0.00     0.013 C 
ATOM     66  CG2 ILE d   6    2547.865 779.361-2652.566  0.00  0.00     0.012 C 
BRANCH  65  67
ATOM     67  CG1 ILE d   6    2546.443 779.601-2650.490  0.00  0.00     0.002 C 
ATOM     68  CD1 ILE d   6    2546.712 778.212-2649.875  0.00  0.00     0.005 C 
ENDBRANCH  65  67
ENDBRANCH  16  65
ENDBRANCH  13  16
ENDBRANCH  11  12
BRANCH  11  69
ATOM     69  CB  LEU d   7    2543.563 779.403-2656.672  0.00  0.00     0.038 C 
BRANCH  69  70
ATOM     70  CG  LEU d   7    2543.490 777.924-2656.205  0.00  0.00    -0.020 C 
ATOM     71  CD1 LEU d   7    2542.300 777.218-2656.871  0.00  0.00     0.009 C 
ATOM     72  CD2 LEU d   7    2544.784 777.144-2656.497  0.00  0.00     0.009 C 
ENDBRANCH  69  70
ENDBRANCH  11  69
ENDBRANCH   8  11
ENDBRANCH   6   7
BRANCH   6  73
ATOM     73  CB  ASP d   8    2542.710 784.689-2656.072  0.00  0.00     0.147 C 
BRANCH  73  74
ATOM     74  CG  ASP d   8    2542.492 786.109-2656.613  0.00  0.00     0.175 C 
ATOM     75  OD1 ASP d   8    2542.557 786.308-2657.844  0.00  0.00    -0.648 OA
ATOM     76  OD2 ASP d   8    2542.301 787.036-2655.798  0.00  0.00    -0.648 OA
ENDBRANCH  73  74
ENDBRANCH   6  73
ENDBRANCH   3   6
ENDBRANCH   1   2
BRANCH   1  77
ATOM     77  C   GLU d   9    2548.036 784.607-2656.682  0.00  0.00     0.241 C 
ATOM     78  O   GLU d   9    2548.700 785.360-2657.408  0.00  0.00    -0.271 OA
ATOM     79  N   HIS d  10    2548.132 783.331-2656.851  0.00  0.00    -0.346 N 
ATOM     80  H   HIS d  10    2547.601 782.696-2656.272  0.00  0.00     0.163 HD
BRANCH  79  81
ATOM     81  CA  HIS d  10    2549.019 782.819-2657.891  0.00  0.00     0.182 C 
BRANCH  81  82
ATOM     82  C   HIS d  10    2548.652 783.383-2659.242  0.00  0.00     0.241 C 
ATOM     83  O   HIS d  10    2549.505 783.847-2660.015  0.00  0.00    -0.271 OA
ATOM     84  N   VAL d  11    2547.414 783.383-2659.605  0.00  0.00    -0.346 N 
ATOM     85  H   VAL d  11    2546.701 783.011-2658.994  0.00  0.00     0.163 HD
BRANCH  84  86
ATOM     86  CA  VAL d  11    2547.059 783.928-2660.912  0.00  0.00     0.180 C 
BRANCH  86  87
ATOM     87  C   VAL d  11    2547.524 785.359-2661.046  0.00  0.00     0.241 C 
ATOM     88  O   VAL d  11    2548.125 785.763-2662.049  0.00  0.00    -0.271 OA
ATOM     89  N   GLN d  12    2547.288 786.185-2660.083  0.00  0.00    -0.346 N 
ATOM     90  H   GLN d  12    2546.799 785.879-2659.254  0.00  0.00     0.163 HD
BRANCH  89  91
ATOM     91  CA  GLN d  12    2547.737 787.568-2660.211  0.00  0.00     0.177 C 
BRANCH  91  92
ATOM     92  C   GLN d  12    2549.227 787.634-2660.450  0.00  0.00     0.241 C 
ATOM     93  O   GLN d  12    2549.714 788.341-2661.329  0.00  0.00    -0.271 OA
ATOM     94  N   ARG d  13    2550.012 786.927-2659.708  0.00  0.00    -0.346 N 
ATOM     95  H   ARG d  13    2549.635 786.338-2658.979  0.00  0.00     0.163 HD
BRANCH  94  96
ATOM     96  CA  ARG d  13    2551.452 786.992-2659.940  0.00  0.00     0.176 C 
BRANCH  96  97
ATOM     97  C   ARG d  13    2551.788 786.620-2661.365  0.00  0.00     0.241 C 
ATOM     98  O   ARG d  13    2552.556 787.291-2662.049  0.00  0.00    -0.271 OA
ATOM     99  N   VAL d  14    2551.251 785.565-2661.878  0.00  0.00    -0.346 N 
ATOM    100  H   VAL d  14    2550.616 784.997-2661.336  0.00  0.00     0.163 HD
BRANCH  99 101
ATOM    101  CA  VAL d  14    2551.575 785.205-2663.256  0.00  0.00     0.180 C 
BRANCH 101 102
ATOM    102  C   VAL d  14    2551.246 786.335-2664.202  0.00  0.00     0.241 C 
ATOM    103  O   VAL d  14    2552.039 786.716-2665.071  0.00  0.00    -0.271 OA
ATOM    104  N   MET d  15    2550.101 786.921-2664.100  0.00  0.00    -0.346 N 
ATOM    105  H   MET d  15    2549.436 786.628-2663.398  0.00  0.00     0.163 HD
BRANCH 104 106
ATOM    106  CA  MET d  15    2549.781 788.013-2665.014  0.00  0.00     0.177 C 
BRANCH 106 107
ATOM    107  C   MET d  15    2550.811 789.113-2664.927  0.00  0.00     0.241 C 
ATOM    108  O   MET d  15    2551.313 789.623-2665.939  0.00  0.00    -0.271 OA
ATOM    109  N   ILE d  16    2551.180 789.535-2663.764  0.00  0.00    -0.347 N 
ATOM    110  H   ILE d  16    2550.785 789.135-2662.925  0.00  0.00     0.163 HD
BRANCH 109 111
ATOM    111  CA  ILE d  16    2552.177 790.599-2663.681  0.00  0.00     0.166 C 
BRANCH 111 112
ATOM    112  C   ILE d  16    2553.447 790.207-2664.397  0.00  0.00     0.219 C 
ATOM    113  O   ILE d  16    2553.570 789.111-2664.964  0.00  0.00    -0.287 OA
ENDBRANCH 111 112
BRANCH 111 114
ATOM    114  CB  ILE d  16    2552.451 791.015-2662.179  0.00  0.00     0.012 C 
ATOM    115  CG2 ILE d  16    2553.446 792.210-2662.054  0.00  0.00     0.012 C 
BRANCH 114 116
ATOM    116  CG1 ILE d  16    2551.170 791.361-2661.354  0.00  0.00     0.002 C 
ATOM    117  CD1 ILE d  16    2551.359 791.455-2659.826  0.00  0.00     0.005 C 
ENDBRANCH 114 116
ENDBRANCH 111 114
ENDBRANCH 109 111
ENDBRANCH 106 107
BRANCH 106 118
ATOM    118  CB  MET d  15    2548.359 788.559-2664.705  0.00  0.00     0.045 C 
BRANCH 118 119
ATOM    119  CG  MET d  15    2547.197 787.561-2664.896  0.00  0.00     0.076 C 
BRANCH 119 120
ATOM    120  SD  MET d  15    2545.623 788.427-2664.781  0.00  0.00    -0.173 SA
ATOM    121  CE  MET d  15    2544.542 786.998-2664.644  0.00  0.00     0.089 C 
ENDBRANCH 119 120
ENDBRANCH 118 119
ENDBRANCH 106 118
ENDBRANCH 104 106
ENDBRANCH 101 102
BRANCH 101 122
ATOM    122  CB  VAL d  14    2550.802 783.888-2663.662  0.00  0.00     0.009 C 
ATOM    123  CG1 VAL d  14    2550.891 783.469-2665.155  0.00  0.00     0.012 C 
ATOM    124  CG2 VAL d  14    2551.234 782.636-2662.861  0.00  0.00     0.012 C 
ENDBRANCH 101 122
ENDBRANCH  99 101
ENDBRANCH  96  97
BRANCH  96 125
ATOM    125  CB  ARG d  13    2552.165 786.054-2658.925  0.00  0.00     0.036 C 
BRANCH 125 126
ATOM    126  CG  ARG d  13    2553.710 786.207-2658.845  0.00  0.00     0.023 C 
BRANCH 126 127
ATOM    127  CD  ARG d  13    2554.337 785.220-2657.847  0.00  0.00     0.138 C 
BRANCH 127 128
ATOM    128  NE  ARG d  13    2555.814 785.426-2657.797  0.00  0.00    -0.227 N 
ATOM    129  CZ  ARG d  13    2556.663 784.735-2657.041  0.00  0.00     0.665 C 
ATOM    130  NH1 ARG d  13    2556.298 783.772-2656.243  0.00  0.00    -0.235 N 
ATOM    131  NH2 ARG d  13    2557.922 785.034-2657.099  0.00  0.00    -0.235 N 
ATOM    132 11HH ARG d  13    2555.292 783.586-2656.246  0.00  0.00     0.174 HD
ATOM    133 12HH ARG d  13    2557.011 783.289-2655.694  0.00  0.00     0.174 HD
ATOM    134 21HH ARG d  13    2558.190 785.791-2657.730  0.00  0.00     0.174 HD
ATOM    135 22HH ARG d  13    2558.558 784.492-2656.510  0.00  0.00     0.174 HD
ATOM    136  HE  ARG d  13    2556.266 786.148-2658.368  0.00  0.00     0.177 HD
ENDBRANCH 127 128
ENDBRANCH 126 127
ENDBRANCH 125 126
ENDBRANCH  96 125
ENDBRANCH  94  96
ENDBRANCH  91  92
BRANCH  91 137
ATOM    137  CB  GLN d  12    2547.347 788.336-2658.929  0.00  0.00     0.044 C 
BRANCH 137 138
ATOM    138  CG  GLN d  12    2547.708 789.857-2658.899  0.00  0.00     0.105 C 
BRANCH 138 139
ATOM    139  CD  GLN d  12    2547.407 790.672-2657.635  0.00  0.00     0.215 C 
ATOM    140  NE2 GLN d  12    2546.840 790.096-2656.605  0.00  0.00    -0.370 N 
ATOM    141 21HE GLN d  12    2546.733 790.691-2655.782  0.00  0.00     0.159 HD
ATOM    142 22HE GLN d  12    2546.675 789.093-2656.708  0.00  0.00     0.159 HD
ATOM    143  OE1 GLN d  12    2547.709 791.853-2657.558  0.00  0.00    -0.274 OA
ENDBRANCH 138 139
ENDBRANCH 137 138
ENDBRANCH  91 137
ENDBRANCH  89  91
ENDBRANCH  86  87
BRANCH  86 144
ATOM    144  CB  VAL d  11    2545.498 783.822-2661.131  0.00  0.00     0.009 C 
ATOM    145  CG1 VAL d  11    2544.929 784.526-2662.394  0.00  0.00     0.012 C 
ATOM    146  CG2 VAL d  11    2544.973 782.368-2661.203  0.00  0.00     0.012 C 
ENDBRANCH  86 144
ENDBRANCH  84  86
ENDBRANCH  81  82
BRANCH  81 147
ATOM    147  CB  HIS d  10    2548.854 781.290-2657.885  0.00  0.00     0.095 C 
BRANCH 147 148
ATOM    148  CG  HIS d  10    2550.140 780.579-2657.577  0.00  0.00     0.053 A 
ATOM    149  CD2 HIS d  10    2550.521 780.245-2656.285  0.00  0.00     0.116 A 
ATOM    150  NE2 HIS d  10    2551.736 779.613-2656.352  0.00  0.00    -0.359 N 
ATOM    151  CE1 HIS d  10    2551.998 779.615-2657.687  0.00  0.00     0.207 A 
ATOM    152  2HE HIS d  10    2552.302 779.236-2655.578  0.00  0.00     0.166 HD
ATOM    153  ND1 HIS d  10    2551.091 780.173-2658.510  0.00  0.00    -0.247 NA
ENDBRANCH 147 148
ENDBRANCH  81 147
ENDBRANCH  79  81
ENDBRANCH   1  77
BRANCH   1 154
ATOM    154  CB  GLU d   9    2547.752 784.928-2654.201  0.00  0.00     0.045 C 
BRANCH 154 155
ATOM    155  CG  GLU d   9    2549.135 785.620-2653.972  0.00  0.00     0.116 C 
BRANCH 155 156
ATOM    156  CD  GLU d   9    2549.837 785.407-2652.644  0.00  0.00     0.172 C 
ATOM    157  OE1 GLU d   9    2549.315 784.717-2651.747  0.00  0.00    -0.648 OA
ATOM    158  OE2 GLU d   9    2550.956 785.944-2652.512  0.00  0.00    -0.648 OA
ENDBRANCH 155 156
ENDBRANCH 154 155
ENDBRANCH   1 154
TORSDOF 66
